
Note: No compatibility mode selected!


Circuit: * spicemodels/option-b-encoder.spice

Doing analysis at TEMP = 27.000000 and TNOM = 27.000000

Using SPARSE 1.3 as Direct Linear Solver
Warning: singular matrix:  check node comp_out

Note: Starting dynamic gmin stepping
Warning: singular matrix:  check node comp_out

Warning: Dynamic gmin stepping failed
Note: Starting true gmin stepping
Warning: singular matrix:  check node comp_out

Warning: singular matrix:  check node comp_out

Warning: singular matrix:  check node comp_out

Warning: singular matrix:  check node comp_out

Warning: True gmin stepping failed
Note: Starting source stepping
Warning: source stepping failed
Note: Transient op started
Note: Transient op finished successfully

Initial Transient Solution
--------------------------

Node                                   Voltage
----                                   -------
vdd                                        0.9
pwr                                1.62614e-05
xenc0.b0b                                  0.9
b0                                           0
xenc0.b1b                                  0.9
b1                                           0
xenc0.b2b                                  0.9
b2                                           0
xenc0.xxnor01.t1                           0.9
xenc0.xxnor01.xn1.n2                       0.9
xenc0.xxnor01.t2                           0.9
xenc0.xxnor01.xn2.n1               3.18715e-05
xenc0.xxnor01.t2b                 -7.15179e-08
xenc0.xxnor01.t3                      0.899999
xenc0.xxnor01.xnand.n1                0.532514
xenc0.xnor01                      -2.54809e-06
xenc0.xor01                            0.89999
xenc0.xxnor20.t1                           0.9
xenc0.xxnor20.xn1.n2                       0.9
xenc0.xxnor20.t2                           0.9
xenc0.xxnor20.xn2.n1               3.18715e-05
xenc0.xxnor20.t2b                  2.99782e-08
xenc0.xxnor20.t3                           0.9
xenc0.xxnor20.xnand.n1                0.532514
xenc0.xnor20                       2.33894e-06
xenc0.xor20                           0.900009
xenc0.nb2                             0.899989
xenc0.np                           1.26561e-05
xenc0.xnandp.n1                   -7.30398e-05
xenc0.pos                             0.899997
xenc0.nb1                             0.900011
xenc0.nn                          -2.22328e-05
xenc0.xnandn.n1                    0.000105643
xenc0.neg                             0.899995
xenc0.nneg                         5.69849e-06
xenc0.ntp                             0.900002
xenc0.xnandtp.n1                      0.557244
tp0                                2.57487e-07
xenc0.npos                        -7.05955e-05
xenc0.ntn                             0.899985
xenc0.xnandtn.n1                        0.5325
tn0                               -9.48355e-09
xenc1.b0b                                  0.9
xenc1.b1b                                  0.9
xenc1.b2b                                  0.9
xenc1.xxnor01.t1                           0.9
xenc1.xxnor01.xn1.n2                       0.9
xenc1.xxnor01.t2                           0.9
xenc1.xxnor01.xn2.n1               3.18715e-05
xenc1.xxnor01.t2b                 -7.15209e-08
xenc1.xxnor01.t3                      0.899999
xenc1.xxnor01.xnand.n1                0.532514
xenc1.xnor01                      -2.54816e-06
xenc1.xor01                            0.89999
xenc1.xxnor20.t1                           0.9
xenc1.xxnor20.xn1.n2                       0.9
xenc1.xxnor20.t2                           0.9
xenc1.xxnor20.xn2.n1               3.18715e-05
xenc1.xxnor20.t2b                  2.99749e-08
xenc1.xxnor20.t3                           0.9
xenc1.xxnor20.xnand.n1                0.532514
xenc1.xnor20                       2.33892e-06
xenc1.xor20                           0.900009
xenc1.nb2                             0.899989
xenc1.np                           1.26571e-05
xenc1.xnandp.n1                   -7.30414e-05
xenc1.pos                             0.899997
xenc1.nb1                             0.900011
xenc1.nn                          -2.22319e-05
xenc1.xnandn.n1                    0.000105643
xenc1.neg                             0.899995
xenc1.nneg                         5.70802e-06
xenc1.ntp                             0.900002
xenc1.xnandtp.n1                      0.557244
tp1                                2.26702e-07
xenc1.npos                        -7.05917e-05
xenc1.ntn                             0.899985
xenc1.xnandtn.n1                        0.5325
tn1                               -4.45542e-08
xenc2.b0b                                  0.9
xenc2.b1b                                  0.9
xenc2.b2b                                  0.9
xenc2.xxnor01.t1                           0.9
xenc2.xxnor01.xn1.n2                       0.9
xenc2.xxnor01.t2                           0.9
xenc2.xxnor01.xn2.n1               3.18715e-05
xenc2.xxnor01.t2b                 -7.15199e-08
xenc2.xxnor01.t3                      0.899999
xenc2.xxnor01.xnand.n1                0.532514
xenc2.xnor01                      -2.54812e-06
xenc2.xor01                            0.89999
xenc2.xxnor20.t1                           0.9
xenc2.xxnor20.xn1.n2                       0.9
xenc2.xxnor20.t2                           0.9
xenc2.xxnor20.xn2.n1               3.18715e-05
xenc2.xxnor20.t2b                  2.99768e-08
xenc2.xxnor20.t3                           0.9
xenc2.xxnor20.xnand.n1                0.532514
xenc2.xnor20                       2.33892e-06
xenc2.xor20                           0.900009
xenc2.nb2                             0.899989
xenc2.np                           1.26559e-05
xenc2.xnandp.n1                   -7.30395e-05
xenc2.pos                             0.899997
xenc2.nb1                             0.900011
xenc2.nn                          -2.22331e-05
xenc2.xnandn.n1                    0.000105644
xenc2.neg                             0.899995
xenc2.nneg                         5.69627e-06
xenc2.ntp                             0.900002
xenc2.xnandtp.n1                      0.557244
tp2                                4.35652e-08
xenc2.npos                        -7.06002e-05
xenc2.ntn                             0.899985
xenc2.xnandtn.n1                        0.5325
tn2                                -2.3519e-07
xenc3.b0b                                  0.9
xenc3.b1b                                  0.9
xenc3.b2b                                  0.9
xenc3.xxnor01.t1                           0.9
xenc3.xxnor01.xn1.n2                       0.9
xenc3.xxnor01.t2                           0.9
xenc3.xxnor01.xn2.n1               3.18715e-05
xenc3.xxnor01.t2b                 -7.15213e-08
xenc3.xxnor01.t3                      0.899999
xenc3.xxnor01.xnand.n1                0.532514
xenc3.xnor01                      -2.54815e-06
xenc3.xor01                            0.89999
xenc3.xxnor20.t1                           0.9
xenc3.xxnor20.xn1.n2                       0.9
xenc3.xxnor20.t2                           0.9
xenc3.xxnor20.xn2.n1               3.18715e-05
xenc3.xxnor20.t2b                  2.99747e-08
xenc3.xxnor20.t3                           0.9
xenc3.xxnor20.xnand.n1                0.532514
xenc3.xnor20                       2.33892e-06
xenc3.xor20                           0.900009
xenc3.nb2                             0.899989
xenc3.np                           1.26572e-05
xenc3.xnandp.n1                   -7.30414e-05
xenc3.pos                             0.899997
xenc3.nb1                             0.900011
xenc3.nn                          -2.22319e-05
xenc3.xnandn.n1                    0.000105643
xenc3.neg                             0.899995
xenc3.nneg                         5.70865e-06
xenc3.ntp                             0.900002
xenc3.xnandtp.n1                      0.557244
tp3                                1.70581e-07
xenc3.npos                        -7.05906e-05
xenc3.ntn                             0.899985
xenc3.xnandtn.n1                        0.5325
tn3                               -1.11033e-07
xsense_shared.xor_p01.nor_ab          0.900002
xsense_shared.xor_p01.xnor_or.n2         0.90001
xsense_shared.orp01                6.44123e-05
xsense_shared.xor_p23.nor_ab          0.899993
xsense_shared.xor_p23.xnor_or.n2        0.900009
xsense_shared.orp23               -1.71685e-05
xsense_shared.xor_p_all.nor_ab        0.900481
xsense_shared.xor_p_all.xnor_or.n2         0.89992
sharedsensep                        0.00357055
xsense_shared.xor_n01.nor_ab          0.900003
xsense_shared.xor_n01.xnor_or.n2        0.900009
xsense_shared.orn01                6.59652e-05
xsense_shared.xor_n23.nor_ab          0.899993
xsense_shared.xor_n23.xnor_or.n2        0.900008
xsense_shared.orn23               -1.84507e-05
xsense_shared.xor_n_all.nor_ab          0.9005
xsense_shared.xor_n_all.xnor_or.n2        0.899913
sharedsensen                        0.00370335
sharedsensediff                   -0.000132799
sharedsensep_noise                  0.00357055
sharedsensen_noise                  0.00370335
shareddrivep                          0.900178
shareddriven                       7.17314e-05
boostp_node                           0.900053
boostn_node                         3.5428e-05
shareddrivediff                       0.860106
comp_out                              0.766912
bdrivediff#branch                 -9.89053e-06
bnoisen#branch                     1.71426e-05
bnoisep#branch                    -9.60947e-08
bdiff#branch                                 0
bpw#branch                                   0
vdd#branch                        -1.80682e-05
vb2#branch                         9.37921e-08
vb1#branch                          8.3569e-08
vb0#branch                         9.90381e-08


No. of Data Rows : 8062

  Measurements for Transient Analysis


Error: measure  td_tp0  trig(TARG) : out of interval
 .meas tran td_tp0 trig v(b0) val=    4.500000000000000e-01     rise=1 targ v(tp0) val=    4.500000000000000e-01     rise=1 failed!


Error: measure  td_tn0  trig(TARG) : out of interval
 .meas tran td_tn0 trig v(b0) val=    4.500000000000000e-01     rise=1 targ v(tn0) val=    4.500000000000000e-01     rise=1 failed!


Error: measure  settle_tp0  trig(TRIG) : out of interval
 .meas tran settle_tp0 trig v(tp0) val=    9.000000000000001e-02     rise=1 targ v(tp0) val=    8.100000000000001e-01     rise=1 failed!


Error: measure  settle_tn0  trig(TRIG) : out of interval
 .meas tran settle_tn0 trig v(tn0) val=    8.100000000000001e-01     fall=1 targ v(tn0) val=    9.000000000000001e-02     fall=1 failed!


Error: measure  td_sharedp  trig(TARG) : out of interval
 .meas tran td_sharedp trig v(b0) val=    4.500000000000000e-01     rise=1 targ v(shareddrivep) val=    4.500000000000000e-01     rise=1 failed!


Error: measure  settle_sharedp  trig(TRIG) : out of interval
 .meas tran settle_sharedp trig v(shareddrivep) val=    9.000000000000001e-02     rise=1 targ v(shareddrivep) val=    8.100000000000001e-01     rise=1 failed!

	measure 'comp_toggle_latency'  failed
Error: measure  comp_toggle_latency  :
	no such function as 'ttime'
 .meas tran comp_toggle_latency ttime v(comp_out) val=    4.500000000000000e-01    failed!

pavg                =  2.475461e-05 from=  5.000000e-09 to=  3.500050e-08
etotal              =   7.42656e-13 from=  5.00000e-09 to=  3.50000e-08
pleak               =  1.439262e-05 from=  3.000000e-08 to=  3.500050e-08
eleak_tail          =   7.19629e-14 from=  3.00000e-08 to=  3.50000e-08
eleak_est           =  4.31777e-13
edyn                =  3.10879e-13
eslice              =  7.77197e-14
eword_est           =  3.34195e-12
sense_headroom_min  =  8.600006e-01 at=  5.140000e-11
sense_headroom_max  =  9.004704e-01 at=  3.199750e-08
sense_diff_min      =  -1.327987e-04 at=  0.000000e+00
sense_diff_max      =  1.170408e-06 at=  1.192250e-08
sense_thresh_latency=  1.249954e-13 targ=  4.013867e-10 trig=  4.012618e-10
Netlist line no. 295:
Undefined parameter [v]
Netlist line no. 295:
 Expression err: v(comp_out,t2)>0.9*vdd?1:0}
Netlist line no. 295:
Cannot compute substitute
comp_pass           =   failed
sharedsensep_max    =  3.570549e-03 at=  0.000000e+00
sharedsensen_min    =  -1.174073e-06 at=  1.191750e-08


Total analysis time (seconds) = 5.15028

Total elapsed time (seconds) = 7.991 

Total DRAM available = 8192.000 MB.
DRAM currently available =   76.109 MB.
Maximum ngspice program size =  288.969 MB.
Current ngspice program size =  288.969 MB.

