
Note: No compatibility mode selected!


Circuit: * spicemodels/option-b-encoder.spice

