
Note: No compatibility mode selected!

warning, can't find model 'sky130_fd_pr__pfet_01v8__ss' from line
    mpf1 comp_out shareddrivep out_int vdd sky130_fd_pr__pfet_01v8__ss l={comp_l} w={comp_wp_cross} nf=1 ad={comp_wp_cross*comp_l} as={comp_wp_cross*comp_l} pd={2*(comp_wp_cross+comp_l)} ps={2*(comp_wp_cross+comp_l)} nrd=1 nrs=1 sa=0 sb=0 sd=0
warning, can't find model 'sky130_fd_pr__pfet_01v8__ss' from line
    mpf2 comp_out shareddriven out_int vdd sky130_fd_pr__pfet_01v8__ss l={comp_l} w={comp_wp_cross} nf=1 ad={comp_wp_cross*comp_l} as={comp_wp_cross*comp_l} pd={2*(comp_wp_cross+comp_l)} ps={2*(comp_wp_cross+comp_l)} nrd=1 nrs=1 sa=0 sb=0 sd=0
warning, can't find model 'sky130_fd_pr__pfet_01v8__ss' from line
    mpf3 out_int shareddrivep mid vdd sky130_fd_pr__pfet_01v8__ss l={comp_l} w={comp_wp_cross} nf=1 ad={comp_wp_cross*comp_l} as={comp_wp_cross*comp_l} pd={2*(comp_wp_cross+comp_l)} ps={2*(comp_wp_cross+comp_l)} nrd=1 nrs=1 sa=0 sb=0 sd=0
warning, can't find model 'sky130_fd_pr__pfet_01v8__ss' from line
    mpf4 out_int shareddriven mid vdd sky130_fd_pr__pfet_01v8__ss l={comp_l} w={comp_wp_cross} nf=1 ad={comp_wp_cross*comp_l} as={comp_wp_cross*comp_l} pd={2*(comp_wp_cross+comp_l)} ps={2*(comp_wp_cross+comp_l)} nrd=1 nrs=1 sa=0 sb=0 sd=0
warning, can't find model 'sky130_fd_pr__nfet_01v8__ss' from line
    mnf1 comp_out mid 0 0 sky130_fd_pr__nfet_01v8__ss l={comp_l} w={comp_wn_tail} nf=1 ad={comp_wn_tail*comp_l} as={comp_wn_tail*comp_l} pd={2*(comp_wn_tail+comp_l)} ps={2*(comp_wn_tail+comp_l)} nrd=1 nrs=1 sa=0 sb=0 sd=0
warning, can't find model 'sky130_fd_pr__nfet_01v8__ss' from line
    mnf2 comp_out comp_out 0 0 sky130_fd_pr__nfet_01v8__ss l={comp_l} w={comp_wn_load} nf=1 ad={comp_wn_load*comp_l} as={comp_wn_load*comp_l} pd={2*(comp_wn_load+comp_l)} ps={2*(comp_wn_load+comp_l)} nrd=1 nrs=1 sa=0 sb=0 sd=0

Circuit: * spicemodels/option-b-encoder.spice

Netlist line no. 277:
 Mismatch: 0 formal but 9 actual params.

Netlist line no. 5:
Undefined parameter [sky130_fd_pr__nfet_01v8__ss]
Netlist line no. 5:
Cannot compute substitute
Netlist line no. 7:
Undefined parameter [nfet_model]
Netlist line no. 7:
Cannot compute substitute
Netlist line no. 8:
Undefined parameter [nfet_model]
Netlist line no. 8:
Cannot compute substitute
Netlist line no. 10:
Undefined parameter [pfet_model]
Netlist line no. 10:
Cannot compute substitute
Netlist line no. 11:
Undefined parameter [pfet_model]
Netlist line no. 11:
Cannot compute substitute
Netlist line no. 13:
Undefined parameter [nfet_model]
Netlist line no. 13:
Cannot compute substitute
Netlist line no. 16:
Undefined parameter [nfet_model]
Netlist line no. 16:
Cannot compute substitute
Netlist line no. 17:
Undefined parameter [nfet_model]
Netlist line no. 17:
Cannot compute substitute
Netlist line no. 19:
Undefined parameter [pfet_model]
Netlist line no. 19:
Cannot compute substitute
Netlist line no. 20:
Undefined parameter [pfet_model]
Netlist line no. 20:
Cannot compute substitute
Netlist line no. 22:
Undefined parameter [nfet_model]
Netlist line no. 22:
Cannot compute substitute
Netlist line no. 24:
Undefined parameter [w_inv_wn]
Netlist line no. 24:
 Formula() error.
      |wn=w_inv_wn; wp=w_inv_wp; l=l;| : |wn|=|w_inv_wn|
Netlist line no. 133:
Undefined parameter [l]
Netlist line no. 133:
 Formula() error.
      |mult=1; sd=0; sb=0; sa=0; nrs=1; nrd=1; nf=1; l=l; w=wn; ad=wn*l; as=wn*l; pd=2*(wn+l); ps=2*(wn+l);| : |l|=|l|
Netlist line no. 38:
Undefined parameter [l]
Netlist line no. 38:
Cannot compute substitute
Netlist line no. 39:
Undefined parameter [l]
Netlist line no. 39:
 Expression err: l*w*mult)))} toxm=4.148e-9 dtox=0.0 epsrox=3.9 xj=1.5e-7 ngate=1.0e+23 ndep=1.7e+17 nsd=1.0e+20 rsh=1.0 rshg=0.1 wint=4.4379e-8 lint=-1.955e-10 vth0={0.5164001+mc_mm_switch*agauss(0,1.0,1)*(sky130_fd_pr__nfet_01v8__vth0_slope/sqrt(l*w*mult))} k1=0.54086565 k2=-0.026610291 k3=2.0 k3b=0.54 w0=0.0 dvt0=0.0 dvt1=0.53 dvt2=-0.032 dvt0w=-3.58 dvt1w=1670600.0 dvt2w=0.068 dsub=0.56 minv=0.0 voffl=5.8197729e-9 lpe0=1.0325e-7 lpeb=-7.082e-8 vbm=-3.0 dvtp0=0.0 dvtp1=0.0 phin=0.0 cdsc=0.0 cdscb=0.0 cdscd=0.0054 cit=0.0 voff={-0.1052686+mc_mm_switch*agauss(0,1.0,1)*(sky130_fd_pr__nfet_01v8__voff_slope/sqrt(l*w*mult))} nfactor=2.68257 eta0=0.08 etab=-0.07 u0=0.0311586 ua=-7.5672677e-10 ub=1.58789e-18 uc=4.9242e-11 ud=0.0 up=0.0 lp=1.0 eu=1.67 vtl=0.0 xn=3.0 vsat=80000.0 a0=1.38376 ags=0.368846 a1=0.0 a2=0.42385546 b0=0.0 b1=2.1073424e-24 keta=-0.0087946 dwg=0.0 dwb=0.0 pclm=0.026316 pdiblc1=0.39 pdiblc2=0.0030734587 pdiblcb=-0.025 drout=0.56 pscbe1=754674160.0 pscbe2=1.0e-12 pvag=0.0 delta=0.01 fprout=0.0 pdits=0.0 pditsl=0.0 pditsd=0.0 lambda=0.0 lc=5.0e-9 rdsw=65.968 rsw=0.0 rdw=0.0 rdswmin=0.0 rdwmin=0.0 rswmin=0.0 prwb=0.0 prwg=0.021507 wr=1.0 alpha0=3.0e-8 alpha1=0.85 beta0=13.86 agidl=0.0 bgidl=2300000000.0 cgidl=0.5 egidl=0.8 toxref=4.148e-9 dlcig=0.0 aigbacc=1.0 bigbacc=0.0 cigbacc=0.0 nigbacc=0.0 aigbinv=0.35 bigbinv=0.03 cigbinv=0.006 eigbinv=1.1 nigbinv=0.0 aigc=0.43 bigc=0.054 cigc=0.075 aigsd=0.43 bigsd=0.054 cigsd=0.075 nigc=0.0 poxedge=1.0 pigcd=1.0 ntox=1.0 vfbsdoff=0.0 dlc=-6.13e-10 dwc=2.252e-8 xpart=0.0 cgso=2.4892e-10 cgdo=2.4892e-10 cgbo=1.0e-13 cgdl=0.0 cgsl=0.0 clc=1.0e-7 cle=0.6 cf=1.4067e-12 ckappas=0.6 vfbcv=-1.0 acde=0.4 moin=6.9 noff=3.4037 voffcv=-0.17287 xrcrg1=12.0 xrcrg2=1.0 rbpb=50.0 rbpd=50.0 rbps=50.0 rbdb=50.0 rbsb=50.0 gbmin=1.0e-12 ef=0.84 noia=2.5e+42 noib=0.0 noic=0.0 em=41000000.0 ntnoi=1.0 lintnoi=-1.0e-7 af=1.0 kf=0.0 tnoia=15000000.0 tnoib=9900000.0 rnoia=0.94 rnoib=0.26 xl=0.0 xw=0.0 dmcg=0.0 dmdg=0.0 dmcgt=0.0 xgw=0.0 xgl=0.0 ngcon=1.0 jss=0.00275 jsws=6.0e-10 ijthsfwd=0.1 ijthsrev=0.1 bvs=11.7 xjbvs=1.0 pbs=0.729 cjs=0.00154845795 mjs=0.44 pbsws=0.2 cjsws=4.24559793e-11 mjsws=0.0009 pbswgs=0.95578 cjswgs=2.75331171e-10 mjswgs=0.8 tnom=30.0 kt1=-0.31303 kt2=-0.045313337 at=140000.0 ute=-1.8134 ua1=3.7602e-10 ub1=-6.3962e-19 uc1=1.5829713e-11 kt1l=0.0 prt=0.0 tvoff=0.0 njs=1.2928 tpb=0.0012287 tcj=0.000792 tpbsw=0.0 tcjsw=1.0e-5 tpbswg=0.0 tcjswg=0.0 xtis=2.0 tvfbsdoff=0.0 ll=0.0 wl=0.0 lln=1.0 wln=1.0 lw=0.0 ww=0.0 lwn=1.0 wwn=1.0 lwl=0.0 wwl=0.0 llc=0.0 wlc=0.0 lwc=0.0 wwc=0.0 lwlc=0.0 wwlc=0.0 saref=3.0e-6 sbref=3.0e-6 kvth0=9.8e-9 lkvth0=0.0 wkvth0=2.0e-7 pkvth0=0.0 llodvth=0.0 wlodvth=1.0 wlod=0.0 stk2=0.0 lodk2=1.0 lodeta0=1.0 ku0=-2.7e-8 lku0=0.0 wku0=0.0 pku0=0.0 tku0=0.0 llodku0=0.0 wlodku0=1.0 kvsat=0.2 steta0=0.0
Netlist line no. 39:
Cannot compute substitute
Netlist line no. 310:
Undefined parameter [l]
Netlist line no. 310:
 Expression err: l*w*mult)))} toxm=4.148e-9 dtox=0.0 epsrox=3.9 xj=1.5e-7 ngate=1.0e+23 ndep=1.7e+17 nsd=1.0e+20 rsh=1.0 rshg=0.1 wint=4.4379e-8 lint=-1.955e-10 vth0={0.5164001+mc_mm_switch*agauss(0,1.0,1)*(sky130_fd_pr__nfet_01v8__vth0_slope/sqrt(l*w*mult))} k1=0.54086565 k2=-0.026610291 k3=2.0 k3b=0.54 w0=0.0 dvt0=0.0 dvt1=0.53 dvt2=-0.032 dvt0w=-3.58 dvt1w=1670600.0 dvt2w=0.068 dsub=0.56 minv=0.0 voffl=5.8197729e-9 lpe0=1.0325e-7 lpeb=-7.082e-8 vbm=-3.0 dvtp0=0.0 dvtp1=0.0 phin=0.0 cdsc=0.0 cdscb=0.0 cdscd=0.0054 cit=0.0 voff={-0.1052686+mc_mm_switch*agauss(0,1.0,1)*(sky130_fd_pr__nfet_01v8__voff_slope/sqrt(l*w*mult))} nfactor=2.68257 eta0=0.08 etab=-0.07 u0=0.0311586 ua=-7.5672677e-10 ub=1.58789e-18 uc=4.9242e-11 ud=0.0 up=0.0 lp=1.0 eu=1.67 vtl=0.0 xn=3.0 vsat=80000.0 a0=1.38376 ags=0.368846 a1=0.0 a2=0.42385546 b0=0.0 b1=2.1073424e-24 keta=-0.0087946 dwg=0.0 dwb=0.0 pclm=0.026316 pdiblc1=0.39 pdiblc2=0.0030734587 pdiblcb=-0.025 drout=0.56 pscbe1=754674160.0 pscbe2=1.0e-12 pvag=0.0 delta=0.01 fprout=0.0 pdits=0.0 pditsl=0.0 pditsd=0.0 lambda=0.0 lc=5.0e-9 rdsw=65.968 rsw=0.0 rdw=0.0 rdswmin=0.0 rdwmin=0.0 rswmin=0.0 prwb=0.0 prwg=0.021507 wr=1.0 alpha0=3.0e-8 alpha1=0.85 beta0=13.86 agidl=0.0 bgidl=2300000000.0 cgidl=0.5 egidl=0.8 toxref=4.148e-9 dlcig=0.0 aigbacc=1.0 bigbacc=0.0 cigbacc=0.0 nigbacc=0.0 aigbinv=0.35 bigbinv=0.03 cigbinv=0.006 eigbinv=1.1 nigbinv=0.0 aigc=0.43 bigc=0.054 cigc=0.075 aigsd=0.43 bigsd=0.054 cigsd=0.075 nigc=0.0 poxedge=1.0 pigcd=1.0 ntox=1.0 vfbsdoff=0.0 dlc=-6.13e-10 dwc=2.252e-8 xpart=0.0 cgso=2.4892e-10 cgdo=2.4892e-10 cgbo=1.0e-13 cgdl=0.0 cgsl=0.0 clc=1.0e-7 cle=0.6 cf=1.4067e-12 ckappas=0.6 vfbcv=-1.0 acde=0.4 moin=6.9 noff=3.4037 voffcv=-0.17287 xrcrg1=12.0 xrcrg2=1.0 rbpb=50.0 rbpd=50.0 rbps=50.0 rbdb=50.0 rbsb=50.0 gbmin=1.0e-12 ef=0.84 noia=2.5e+42 noib=0.0 noic=0.0 em=41000000.0 ntnoi=1.0 lintnoi=-1.0e-7 af=1.0 kf=0.0 tnoia=15000000.0 tnoib=9900000.0 rnoia=0.94 rnoib=0.26 xl=0.0 xw=0.0 dmcg=0.0 dmdg=0.0 dmcgt=0.0 xgw=0.0 xgl=0.0 ngcon=1.0 jss=0.00275 jsws=6.0e-10 ijthsfwd=0.1 ijthsrev=0.1 bvs=11.7 xjbvs=1.0 pbs=0.729 cjs=0.00154845795 mjs=0.44 pbsws=0.2 cjsws=4.24559793e-11 mjsws=0.0009 pbswgs=0.95578 cjswgs=2.75331171e-10 mjswgs=0.8 tnom=30.0 kt1=-0.31303 kt2=-0.045313337 at=140000.0 ute=-1.8134 ua1=3.7602e-10 ub1=-6.3962e-19 uc1=1.5829713e-11 kt1l=0.0 prt=0.0 tvoff=0.0 njs=1.2928 tpb=0.0012287 tcj=0.000792 tpbsw=0.0 tcjsw=1.0e-5 tpbswg=0.0 tcjswg=0.0 xtis=2.0 tvfbsdoff=0.0 ll=0.0 wl=0.0 lln=1.0 wln=1.0 lw=0.0 ww=0.0 lwn=1.0 wwn=1.0 lwl=0.0 wwl=0.0 llc=0.0 wlc=0.0 lwc=0.0 wwc=0.0 lwlc=0.0 wwlc=0.0 saref=3.0e-6 sbref=3.0e-6 kvth0=9.8e-9 lkvth0=0.0 wkvth0=2.0e-7 pkvth0=0.0 llodvth=0.0 wlodvth=1.0 wlod=0.0 stk2=0.0 lodk2=1.0 lodeta0=1.0 ku0=-2.7e-8 lku0=0.0 wku0=0.0 pku0=0.0 tku0=0.0 llodku0=0.0 wlodku0=1.0 kvsat=0.2 steta0=0.0
Netlist line no. 310:
Cannot compute substitute
Netlist line no. 581:
Undefined parameter [l]
Netlist line no. 581:
 Expression err: l*w*mult)))} toxm=4.148e-9 dtox=0.0 epsrox=3.9 xj=1.5e-7 ngate=1.0e+23 ndep=1.7e+17 nsd=1.0e+20 rsh=1.0 rshg=0.1 wint=4.4379e-8 lint=-1.955e-10 vth0={5.169550527e-01+mc_mm_switch*agauss(0,1.0,1)*(sky130_fd_pr__nfet_01v8__vth0_slope1/sqrt(l*w*mult))} lvth0=-4.439838262e-09 wvth0=-5.544600946e-08 pvth0=4.435897551e-13 k1=5.415455151e-01 lk1=-5.439186877e-09 wk1=-6.792616965e-08 pk1=5.434359163e-13 k2=-2.702810631e-02 lk2=3.342685843e-09 wk2=4.174444651e-08 pk2=-3.339718941e-13 k3=2.0 k3b=0.54 w0=0.0 dvt0=0.0 dvt1=0.53 dvt2=-0.032 dvt0w=-3.58 dvt1w=1670600.0 dvt2w=0.068 dsub=0.56 minv=0.0 voffl=5.8197729e-9 lpe0=1.0325e-7 lpeb=-7.082e-8 vbm=-3.0 dvtp0=0.0 dvtp1=0.0 phin=0.0 cdsc=0.0 cdscb=0.0 cdscd=0.0054 cit=0.0 voff={-1.049995897e-01+mc_mm_switch*agauss(0,1.0,1)*(sky130_fd_pr__nfet_01v8__voff_slope/sqrt(l*w*mult))} lvoff=-2.152187947e-09 wvoff=-2.687715773e-08 pvoff=2.150277708e-13 nfactor=2.684598982e+00 lnfactor=-1.623265138e-08 wnfactor=-2.027181371e-07 pnfactor=1.621824360e-12 eta0=0.08 etab=-0.07 u0=3.111987097e-02 lu0=3.098474224e-10 wu0=3.869465981e-09 pu0=-3.095724081e-14 ua=-7.563085878e-10 lua=-3.345620801e-18 wua=-4.178109914e-17 pua=3.342651295e-22 ub=1.582782613e-18 lub=4.086109167e-26 wub=5.102853621e-25 pub=-4.082482418e-30 uc=4.877028021e-11 luc=3.773942794e-18 wuc=4.713011049e-17 puc=-3.770593118e-22 ud=0.0 up=0.0 lp=1.0 eu=1.67 vtl=0.0 xn=3.0 vsat=80000.0 a0=1.376602449e+00 la0=5.726320479e-08 wa0=7.151197875e-07 pa0=-5.721237912e-12 ags=3.702739278e-01 lags=-1.142398111e-08 wags=-1.426660449e-07 pags=1.141384142e-12 a1=0.0 a2=0.42385546 b0=0.0 b1=1.950721142e-24 lb1=1.253031301e-30 wb1=1.564822438e-29 pb1=-1.251919135e-34 keta=-8.288268593e-03 lketa=-4.050849232e-09 wketa=-5.058819974e-08 pketa=4.047253779e-13 dwg=0.0 dwb=0.0 pclm=6.798847130e-02 lpclm=-3.333960644e-07 wpclm=-4.163548365e-06 ppclm=3.331001487e-11 pdiblc1=0.39 pdiblc2=3.074731630e-03 lpdiblc2=-1.018393736e-11 wpdiblc2=-1.271800128e-10 ppdiblc2=1.017489830e-15 pdiblcb=-0.025 drout=0.56 pscbe1=7.580428532e+08 lpscbe1=-2.695086297e+01 wpscbe1=-3.365703242e+02 ppscbe1=2.692694192e-3 pscbe2=1.0e-12 pvag=0.0 delta=0.01 fprout=0.0 pdits=0.0 pditsl=0.0 pditsd=0.0 lambda=0.0 lc=5.0e-9 rdsw=65.968 rsw=0.0 rdw=0.0 rdswmin=0.0 rdwmin=0.0 rswmin=0.0 prwb=0.0 prwg=0.021507 wr=1.0 alpha0=3.0e-8 alpha1=0.85 beta0=13.86 agidl=0.0 bgidl=2300000000.0 cgidl=0.5 egidl=0.8 toxref=4.148e-9 dlcig=0.0 aigbacc=1.0 bigbacc=0.0 cigbacc=0.0 nigbacc=0.0 aigbinv=0.35 bigbinv=0.03 cigbinv=0.006 eigbinv=1.1 nigbinv=0.0 aigc=0.43 bigc=0.054 cigc=0.075 aigsd=0.43 bigsd=0.054 cigsd=0.075 nigc=0.0 poxedge=1.0 pigcd=1.0 ntox=1.0 vfbsdoff=0.0 dlc=-6.13e-10 dwc=2.252e-8 xpart=0.0 cgso=2.4892e-10 cgdo=2.4892e-10 cgbo=1.0e-13 cgdl=0.0 cgsl=0.0 clc=1.0e-7 cle=0.6 cf=1.4067e-12 ckappas=0.6 vfbcv=-1.0 acde=0.4 moin=6.9 noff=3.4037 voffcv=-0.17287 xrcrg1=12.0 xrcrg2=1.0 rbpb=50.0 rbpd=50.0 rbps=50.0 rbdb=50.0 rbsb=50.0 gbmin=1.0e-12 ef=0.84 noia=2.5e+42 noib=0.0 noic=0.0 em=41000000.0 ntnoi=1.0 lintnoi=-1.0e-7 af=1.0 kf=0.0 tnoia=15000000.0 tnoib=9900000.0 rnoia=0.94 rnoib=0.26 xl=0.0 xw=0.0 dmcg=0.0 dmdg=0.0 dmcgt=0.0 xgw=0.0 xgl=0.0 ngcon=1.0 jss=0.00275 jsws=6.0e-10 ijthsfwd=0.1 ijthsrev=0.1 bvs=11.7 xjbvs=1.0 pbs=0.729 cjs=0.00154845795 mjs=0.44 pbsws=0.2 cjsws=4.24559793e-11 mjsws=0.0009 pbswgs=0.95578 cjswgs=2.75331171e-10 mjswgs=0.8 tnom=30.0 kt1=-3.131868188e-01 lkt1=1.254611517e-09 wkt1=1.566795859e-08 pkt1=-1.253497949e-13 kt2=-4.539668283e-02 lkt2=6.667992640e-10 wkt2=8.327185837e-09 pkt2=-6.662074263e-14 at=140000.0 ute=-1.816358003e+00 lute=2.366518406e-08 wute=2.955377970e-07 pute=-2.364417931e-12 ua1=3.613815991e-10 lua1=1.171129310e-16 wua1=1.462540817e-15 pua1=-1.170089839e-20 ub1=-6.204561511e-19 lub1=-1.533182842e-25 wub1=-1.914683944e-24 pub1=1.531822019e-29 uc1=1.690943672e-11 luc1=-8.638211971e-18 wuc1=-1.078765384e-16 puc1=8.630544866e-22 kt1l=0.0 prt=0.0 tvoff=0.0 njs=1.2928 tpb=0.0012287 tcj=0.000792 tpbsw=0.0 tcjsw=1.0e-5 tpbswg=0.0 tcjswg=0.0 xtis=2.0 tvfbsdoff=0.0 ll=0.0 wl=0.0 lln=1.0 wln=1.0 lw=0.0 ww=0.0 lwn=1.0 wwn=1.0 lwl=0.0 wwl=0.0 llc=0.0 wlc=0.0 lwc=0.0 wwc=0.0 lwlc=0.0 wwlc=0.0 saref=3.0e-6 sbref=3.0e-6 kvth0=9.8e-9 lkvth0=0.0 wkvth0=2.0e-7 pkvth0=0.0 llodvth=0.0 wlodvth=1.0 wlod=0.0 stk2=0.0 lodk2=1.0 lodeta0=1.0 ku0=-2.7e-8 lku0=0.0 wku0=0.0 pku0=0.0 tku0=0.0 llodku0=0.0 wlodku0=1.0 kvsat=0.2 steta0=0.0
Netlist line no. 581:
Cannot compute substitute
Netlist line no. 852:
Undefined parameter [l]
Netlist line no. 852:
 Expression err: l*w*mult)))} toxm=4.148e-9 dtox=0.0 epsrox=3.9 xj=1.5e-7 ngate=1.0e+23 ndep=1.7e+17 nsd=1.0e+20 rsh=1.0 rshg=0.1 wint=4.4379e-8 lint=-1.955e-10 vth0={5.082895647e-01+mc_mm_switch*agauss(0,1.0,1)*(sky130_fd_pr__nfet_01v8__vth0_slope/sqrt(l*w*mult))} lvth0=3.022550162e-08 wvth0=6.416054992e-08 pvth0=-3.488324862e-14 k1=5.303470136e-01 lk1=3.935919803e-08 wk1=1.368032768e-07 pk1=-2.755619188e-13 k2=-2.027781121e-02 lk2=-2.366113392e-08 wk2=-7.090368593e-08 pk2=1.166646810e-13 k3=2.0 k3b=0.54 w0=0.0 dvt0=0.0 dvt1=0.53 dvt2=-0.032 dvt0w=-3.58 dvt1w=1670600.0 dvt2w=0.068 dsub=5.377013124e-01 ldsub=8.920346908e-08 wdsub=2.227889570e-06 pdsub=-8.912429387e-12 minv=0.0 voffl=5.8197729e-9 lpe0=1.0325e-7 lpeb=-7.082e-8 vbm=-3.0 dvtp0=0.0 dvtp1=0.0 phin=0.0 cdsc=0.0 cdscb=0.0 cdscd=0.0054 cit=0.0 voff={-1.094468316e-01+mc_mm_switch*agauss(0,1.0,1)*(sky130_fd_pr__nfet_01v8__voff_slope/sqrt(l*w*mult))} lvoff=1.563851864e-08 wvoff=5.574887074e-08 pvoff=-1.155086498e-13 nfactor=2.656480338e+00 lnfactor=9.625292024e-08 wnfactor=-1.214596091e-07 pnfactor=1.296758476e-12 eta0=7.409084779e-02 leta0=2.363891931e-08 weta0=5.903907362e-07 peta0=-2.361793787e-12 etab=-6.483418875e-02 letab=-2.066526485e-08 wetab=-5.161226184e-07 petab=2.064692278e-12 u0=3.163793223e-02 lu0=-1.762600218e-09 wu0=4.183247760e-09 pu0=-3.221249061e-14 ua=-7.759969872e-10 lua=7.541567464e-17 wua=1.363035837e-15 pua=-5.285551897e-21 ub=1.676569356e-18 lub=-3.343225490e-25 wub=-1.992821733e-24 pub=5.930924676e-30 uc=5.886902198e-11 luc=-3.662497289e-17 wuc=-3.275870957e-16 puc=1.121956027e-21 ud=0.0 up=0.0 lp=1.0 eu=1.67 vtl=0.0 xn=3.0 vsat=80000.0 a0=1.496166100e+00 la0=-4.210381484e-07 wa0=-1.606799823e-06 pa0=3.567348402e-12 ags=3.566728824e-01 lags=4.298551859e-08 wags=-7.037186914e-07 pags=3.385814099e-12 a1=0.0 a2=0.42385546 b0=0.0 b1=4.528339301e-24 lb1=-9.058449182e-30 wb1=-3.129644877e-29 pb1=6.260513444e-35 keta=-1.648344570e-02 lketa=2.873306350e-08 wketa=8.740373469e-08 pketa=-1.472963146e-13 dwg=0.0 dwb=0.0 pclm=-6.199141083e-01 lpclm=2.418483224e-06 wpclm=8.534067672e-06 ppclm=-1.748541405e-11 pdiblc1=0.39 pdiblc2=3.181769776e-03 lpdiblc2=-4.383783715e-10 wpdiblc2=-1.253303843e-08 ppdiblc2=5.064577420e-14 pdiblcb=-0.025 drout=0.56 pscbe1=7.026020723e+08 lpscbe1=1.948339379e+02 wpscbe1=6.731406483e+02 ppscbe1=-1.346544495e-3 pscbe2=1.0e-12 pvag=0.0 delta=0.01 fprout=0.0 pdits=0.0 pditsl=0.0 pditsd=0.0 lambda=0.0 lc=5.0e-9 rdsw=65.968 rsw=0.0 rdw=0.0 rdswmin=0.0 rdwmin=0.0 rswmin=0.0 prwb=0.0 prwg=0.021507 wr=1.0 alpha0=3.0e-8 alpha1=0.85 beta0=13.86 agidl=0.0 bgidl=2300000000.0 cgidl=0.5 egidl=0.8 toxref=4.148e-9 dlcig=0.0 aigbacc=1.0 bigbacc=0.0 cigbacc=0.0 nigbacc=0.0 aigbinv=0.35 bigbinv=0.03 cigbinv=0.006 eigbinv=1.1 nigbinv=0.0 aigc=0.43 bigc=0.054 cigc=0.075 aigsd=0.43 bigsd=0.054 cigsd=0.075 nigc=0.0 poxedge=1.0 pigcd=1.0 ntox=1.0 vfbsdoff=0.0 dlc=-6.13e-10 dwc=2.252e-8 xpart=0.0 cgso=2.4892e-10 cgdo=2.4892e-10 cgbo=1.0e-13 cgdl=0.0 cgsl=0.0 clc=1.0e-7 cle=0.6 cf=1.4067e-12 ckappas=0.6 vfbcv=-1.0 acde=0.4 moin=6.9 noff=3.4037 voffcv=-0.17287 xrcrg1=12.0 xrcrg2=1.0 rbpb=50.0 rbpd=50.0 rbps=50.0 rbdb=50.0 rbsb=50.0 gbmin=1.0e-12 ef=0.84 noia=2.5e+42 noib=0.0 noic=0.0 em=41000000.0 ntnoi=1.0 lintnoi=-1.0e-7 af=1.0 kf=0.0 tnoia=15000000.0 tnoib=9900000.0 rnoia=0.94 rnoib=0.26 xl=0.0 xw=0.0 dmcg=0.0 dmdg=0.0 dmcgt=0.0 xgw=0.0 xgl=0.0 ngcon=1.0 jss=0.00275 jsws=6.0e-10 ijthsfwd=0.1 ijthsrev=0.1 bvs=11.7 xjbvs=1.0 pbs=0.729 cjs=0.00154845795 mjs=0.44 pbsws=0.2 cjsws=4.24559793e-11 mjsws=0.0009 pbswgs=0.95578 cjswgs=2.75331171e-10 mjswgs=0.8 tnom=30.0 kt1=-3.112630179e-01 lkt1=-6.441344035e-09 wkt1=3.431256217e-08 pkt1=-1.999354992e-13 kt2=-4.402603391e-02 lkt2=-4.816332340e-09 wkt2=-1.655168082e-08 pkt2=3.290445163e-14 at=1.381373163e+05 lat=7.451463117e-03 wat=1.861030421e-01 pat=-7.444849348e-7 ute=-1.757396517e+00 lute=-2.122038146e-07 wute=-1.618132686e-06 pute=5.291012246e-12 ua1=6.250607809e-10 lua1=-9.377068951e-16 wua1=-5.199608359e-15 pua1=1.495030322e-20 ub1=-9.494904445e-19 lub1=1.162947542e-24 wub1=5.192390727e-24 pub1=-1.311285736e-29 uc1=-4.084632707e-13 luc1=6.064015931e-17 wuc1=1.706114446e-16 puc1=-2.510063339e-22 kt1l=0.0 prt=0.0 tvoff=0.0 njs=1.2928 tpb=0.0012287 tcj=0.000792 tpbsw=0.0 tcjsw=1.0e-5 tpbswg=0.0 tcjswg=0.0 xtis=2.0 tvfbsdoff=0.0 ll=0.0 wl=0.0 lln=1.0 wln=1.0 lw=0.0 ww=0.0 lwn=1.0 wwn=1.0 lwl=0.0 wwl=0.0 llc=0.0 wlc=0.0 lwc=0.0 wwc=0.0 lwlc=0.0 wwlc=0.0 saref=3.0e-6 sbref=3.0e-6 kvth0=9.8e-9 lkvth0=0.0 wkvth0=2.0e-7 pkvth0=0.0 llodvth=0.0 wlodvth=1.0 wlod=0.0 stk2=0.0 lodk2=1.0 lodeta0=1.0 ku0=-2.7e-8 lku0=0.0 wku0=0.0 pku0=0.0 tku0=0.0 llodku0=0.0 wlodku0=1.0 kvsat=0.2 steta0=0.0
Netlist line no. 852:
Cannot compute substitute
Netlist line no. 1123:
Undefined parameter [l]
Netlist line no. 1123:
 Expression err: l*w*mult)))} toxm=4.148e-9 dtox=0.0 epsrox=3.9 xj=1.5e-7 ngate=1.0e+23 ndep=1.7e+17 nsd=1.0e+20 rsh=1.0 rshg=0.1 wint=4.4379e-8 lint=-1.955e-10 vth0={5.252641416e-01+mc_mm_switch*agauss(0,1.0,1)*(sky130_fd_pr__nfet_01v8__vth0_slope/sqrt(l*w*mult))} lvth0=-3.730289106e-09 wvth0=-1.395901499e-07 pvth0=3.726978176e-13 k1=5.525319085e-01 lk1=-5.019266071e-09 wk1=-2.516422950e-07 pk1=5.014811071e-13 k2=-3.310977702e-02 lk2=2.007814991e-09 wk2=8.769929244e-08 pk2=-2.006032895e-13 k3=2.0 k3b=0.54 w0=0.0 dvt0=0.0 dvt1=0.53 dvt2=-0.032 dvt0w=-3.58 dvt1w=1670600.0 dvt2w=0.068 dsub=5.822943290e-01 wdsub=-2.227454103e-6 minv=0.0 voffl=5.8197729e-9 lpe0=1.0325e-7 lpeb=-7.082e-8 vbm=-3.0 dvtp0=0.0 dvtp1=0.0 phin=0.0 cdsc=0.0 cdscb=0.0 cdscd=0.0054 cit=0.0 voff={-1.030206999e-01+mc_mm_switch*agauss(0,1.0,1)*(sky130_fd_pr__nfet_01v8__voff_slope/sqrt(l*w*mult))} lvoff=2.783742727e-09 wvoff=1.370422496e-07 pvoff=-2.781271933e-13 nfactor=2.696066082e+00 lnfactor=1.706595406e-08 wnfactor=1.379166589e-06 pnfactor=-1.705080666e-12 eta0=8.605900740e-02 leta0=-3.020794611e-10 weta0=-6.053629548e-07 peta0=3.018113414e-14 etab=-7.515081076e-02 letab=-2.798703115e-11 wetab=5.146238999e-07 petab=2.796219042e-15 u0=3.048700444e-02 lu0=5.397053895e-10 wu0=1.503619859e-08 pu0=-5.392263578e-14 ua=-7.768031703e-10 lua=7.702835605e-17 wua=2.568023674e-15 pua=-7.695998722e-21 ub=1.548052532e-18 lub=-7.723865094e-26 wub=-2.885689612e-24 pub=7.717009546e-30 uc=3.956086411e-11 luc=1.998892326e-18 wuc=3.331176577e-16 puc=-1.997118149e-22 ud=0.0 up=0.0 lp=1.0 eu=1.67 vtl=0.0 xn=3.0 vsat=8.150917279e+04 lvsat=-3.018935661e-03 wvsat=-1.507833276e-01 pvsat=3.016256114e-7 a0=1.273571673e+00 la0=2.423774059e-08 wa0=1.387100453e-06 pa0=-2.421622766e-12 ags=4.017765750e-01 lags=-4.723950215e-08 wags=-1.370559940e-06 pags=4.719757332e-12 a1=0.0 a2=0.42385546 b0=0.0 b1=0.0 keta=-6.947922130e-03 lketa=9.658287975e-09 wketa=4.961614388e-07 pketa=-9.649715472e-13 dwg=0.0 dwb=0.0 pclm=5.766408394e-01 lpclm=2.490547562e-08 wpclm=1.036994827e-06 ppclm=-2.488337002e-12 pdiblc1=4.135789662e-01 lpdiblc1=-4.716715180e-08 wpdiblc1=-2.355803799e-06 ppdiblc1=4.712528718e-12 pdiblc2=2.903068620e-03 lpdiblc2=1.191329119e-10 wpdiblc2=1.873509434e-08 ppdiblc2=-1.190271719e-14 pdiblcb=-2.315565645e-02 lpdiblcb=-3.689408231e-09 wpdiblcb=-1.842706544e-07 ppdiblcb=3.686133586e-13 drout=5.376969539e-01 ldrout=4.461481272e-08 wdrout=2.228325038e-06 pdrout=-4.457521351e-12 pscbe1=7.599344035e+08 lpscbe1=8.014685859e+01 wpscbe1=4.003003505e+03 ppscbe1=-8.007572184e-3 pscbe2=1.0e-12 pvag=0.0 delta=0.01 fprout=0.0 pdits=0.0 pditsl=0.0 pditsd=0.0 lambda=0.0 lc=5.0e-9 rdsw=65.968 rsw=0.0 rdw=0.0 rdswmin=0.0 rdwmin=0.0 rswmin=0.0 prwb=0.0 prwg=0.021507 wr=1.0 alpha0=2.240365012e-07 lalpha0=-3.881488707e-13 walpha0=-1.938642783e-11 palpha0=3.878043575e-17 alpha1=8.525276786e-01 lalpha1=-5.056345442e-09 walpha1=-2.525435043e-07 palpha1=5.051857531e-13 beta0=1.406608015e+01 lbeta0=-4.122408695e-07 wbeta0=-2.058972335e-05 pbeta0=4.118749728e-11 agidl=0.0 bgidl=2300000000.0 cgidl=0.5 egidl=0.8 toxref=4.148e-9 dlcig=0.0 aigbacc=1.0 bigbacc=0.0 cigbacc=0.0 nigbacc=0.0 aigbinv=0.35 bigbinv=0.03 cigbinv=0.006 eigbinv=1.1 nigbinv=0.0 aigc=0.43 bigc=0.054 cigc=0.075 aigsd=0.43 bigsd=0.054 cigsd=0.075 nigc=0.0 poxedge=1.0 pigcd=1.0 ntox=1.0 vfbsdoff=0.0 dlc=-6.13e-10 dwc=2.252e-8 xpart=0.0 cgso=2.4892e-10 cgdo=2.4892e-10 cgbo=1.0e-13 cgdl=0.0 cgsl=0.0 clc=1.0e-7 cle=0.6 cf=1.4067e-12 ckappas=0.6 vfbcv=-1.0 acde=0.4 moin=6.9 noff=3.4037 voffcv=-0.17287 xrcrg1=12.0 xrcrg2=1.0 rbpb=50.0 rbpd=50.0 rbps=50.0 rbdb=50.0 rbsb=50.0 gbmin=1.0e-12 ef=0.84 noia=2.5e+42 noib=0.0 noic=0.0 em=41000000.0 ntnoi=1.0 lintnoi=-1.0e-7 af=1.0 kf=0.0 tnoia=15000000.0 tnoib=9900000.0 rnoia=0.94 rnoib=0.26 xl=0.0 xw=0.0 dmcg=0.0 dmdg=0.0 dmcgt=0.0 xgw=0.0 xgl=0.0 ngcon=1.0 jss=0.00275 jsws=6.0e-10 ijthsfwd=0.1 ijthsrev=0.1 bvs=11.7 xjbvs=1.0 pbs=0.729 cjs=0.00154845795 mjs=0.44 pbsws=0.2 cjsws=4.24559793e-11 mjsws=0.0009 pbswgs=0.95578 cjswgs=2.75331171e-10 mjswgs=0.8 tnom=30.0 kt1=-3.106699830e-01 lkt1=-7.627645815e-09 wkt1=-4.466049515e-07 pkt1=7.620875669e-13 kt2=-4.494226573e-02 lkt2=-2.983510458e-09 wkt2=-1.491166563e-07 pkt2=2.980862354e-13 at=1.380281286e+05 lat=7.669881171e-03 wat=1.970121189e-01 pat=-7.663073538e-7 ute=-1.801915273e+00 lute=-1.231488964e-07 wute=-5.123920776e-06 pute=1.230395919e-11 ua1=2.840854611e-10 lua1=-2.556229341e-16 wua1=-1.049322426e-14 pua1=2.553960483e-20 ub1=-4.352212600e-19 lub1=1.342080935e-25 wub1=5.340381770e-24 pub1=-1.340889731e-29 uc1=3.135027395e-11 luc1=-2.889732799e-18 wuc1=-9.919737126e-17 puc1=2.887167930e-22 kt1l=0.0 prt=0.0 tvoff=0.0 njs=1.2928 tpb=0.0012287 tcj=0.000792 tpbsw=0.0 tcjsw=1.0e-5 tpbswg=0.0 tcjswg=0.0 xtis=2.0 tvfbsdoff=0.0 ll=0.0 wl=0.0 lln=1.0 wln=1.0 lw=0.0 ww=0.0 lwn=1.0 wwn=1.0 lwl=0.0 wwl=0.0 llc=0.0 wlc=0.0 lwc=0.0 wwc=0.0 lwlc=0.0 wwlc=0.0 saref=2.75e-6 sbref=2.74e-6 kvth0=9.8e-9 lkvth0=0.0 wkvth0=2.0e-7 pkvth0=0.0 llodvth=0.0 wlodvth=1.0 wlod=0.0 stk2=0.0 lodk2=1.0 lodeta0=1.0 ku0=-2.7e-8 lku0=0.0 wku0=0.0 pku0=0.0 tku0=0.0 llodku0=0.0 wlodku0=1.0 kvsat=0.2 steta0=0.0
Netlist line no. 1123:
Cannot compute substitute
Netlist line no. 1394:
Undefined parameter [l]
Netlist line no. 1394:
 Expression err: l*w*mult)))} toxm=4.148e-9 dtox=0.0 epsrox=3.9 xj=1.5e-7 ngate=1.0e+23 ndep=1.7e+17 nsd=1.0e+20 rsh=1.0 rshg=0.1 wint=4.4379e-8 lint=-1.955e-10 vth0={5.167505171e-01+mc_mm_switch*agauss(0,1.0,1)*(sky130_fd_pr__nfet_01v8__vth0_slope/sqrt(l*w*mult))} lvth0=4.786664210e-09 wvth0=8.181352179e-08 pvth0=1.512075771e-13 k1=5.403718237e-01 lk1=7.145573309e-09 wk1=9.760905180e-07 pk1=-7.267317495e-13 k2=-2.642553407e-02 lk2=-4.679041500e-09 wk2=-4.106816328e-07 pk2=2.979725027e-13 k3=2.0 k3b=0.54 w0=0.0 dvt0=0.0 dvt1=0.53 dvt2=-0.032 dvt0w=-3.58 dvt1w=1670600.0 dvt2w=0.068 dsub=9.149182842e-01 ldsub=-3.327540112e-07 wdsub=-5.463514810e-06 pdsub=3.237326006e-12 minv=0.0 voffl=5.8197729e-9 lpe0=1.0325e-7 lpeb=-7.082e-8 vbm=-3.0 dvtp0=0.0 dvtp1=0.0 phin=0.0 cdsc=0.0 cdscb=0.0 cdscd=0.0054 cit=0.0 voff={-1.009638102e-01+mc_mm_switch*agauss(0,1.0,1)*(sky130_fd_pr__nfet_01v8__voff_slope/sqrt(l*w*mult))} lvoff=7.260487701e-10 wvoff=-4.160901059e-08 pvoff=-9.940608042e-14 nfactor=2.651631826e+00 lnfactor=6.151758342e-08 wnfactor=-1.275597735e-06 pnfactor=9.507216707e-13 eta0=2.074861233e-01 leta0=-1.217766734e-07 weta0=-4.788141797e-06 peta0=4.214595442e-12 etab=-1.499012846e-01 letab=7.475171430e-08 wetab=1.033844291e-06 petab=-5.166271874e-13 u0=3.263025303e-02 lu0=-1.604381218e-09 wu0=-3.857549189e-08 pu0=-2.899831220e-16 ua=-5.269283583e-10 lua=-1.729441569e-16 wua=-5.170155120e-15 pua=4.520570007e-23 ub=1.334918308e-18 lub=1.359789082e-25 wub=5.318206731e-24 pub=-4.900945202e-31 uc=9.405668330e-12 luc=3.216587879e-17 wuc=2.043946234e-16 puc=-7.093844997e-23 ud=0.0 up=0.0 lp=1.0 eu=1.67 vtl=0.0 xn=3.0 vsat=7.973799759e+04 lvsat=-1.247067935e-03 wvsat=2.617698615e-02 pvsat=1.245961062e-7 a0=1.298398683e+00 la0=-5.989771743e-10 wa0=-3.470644325e-06 pa0=2.438021390e-12 ags=2.419393853e-01 lags=1.126601839e-07 wags=1.282167580e-06 pags=2.065992595e-12 a1=0.0 a2=0.42385546 b0=0.0 b1=0.0 keta=3.555209912e-03 lketa=-8.489507921e-10 wketa=-7.386578190e-07 pketa=2.703305250e-13 dwg=0.0 dwb=0.0 pclm=6.422792070e-01 lpclm=-4.075855658e-08 wpclm=-2.734312189e-06 ppclm=1.284444595e-12 pdiblc1=3.882093194e-01 lpdiblc1=-2.178758547e-08 wpdiblc1=1.789091215e-07 ppdiblc1=2.176824724e-12 pdiblc2=1.127247562e-03 lpdiblc2=1.895648316e-09 wpdiblc2=2.398714120e-08 ppdiblc2=-1.715681759e-14 pdiblcb=-2.868868709e-02 lpdiblcb=1.845785823e-09 wpdiblcb=3.685413088e-07 ppdiblcb=-1.844147540e-13 drout=6.000509517e-01 ldrout=-1.776356547e-08 wdrout=-4.001540324e-06 pdrout=1.774779888e-12 pscbe1=8.623427798e+08 lpscbe1=-2.230155932e+01 wpscbe1=-6.228744556e+03 ppscbe1=2.228176491e-3 pscbe2=1.0e-12 pvag=0.0 delta=0.01 fprout=0.0 pdits=0.0 pditsl=0.0 pditsd=0.0 lambda=0.0 lc=5.0e-9 rdsw=65.968 rsw=0.0 rdw=0.0 rdswmin=0.0 rdwmin=0.0 rswmin=0.0 prwb=0.0 prwg=0.021507 wr=1.0 alpha0=8.593108523e-08 lalpha0=-2.499894555e-13 walpha0=-5.588144192e-12 palpha0=2.497675698e-17 alpha1=8.449446429e-01 lalpha1=2.529655204e-09 walpha1=5.050870086e-07 palpha1=-2.527409933e-13 beta0=1.381524008e+01 lbeta0=-1.613027201e-07 wbeta0=4.472019687e-06 pbeta0=1.611595510e-11 agidl=0.0 bgidl=2300000000.0 cgidl=0.5 egidl=0.8 toxref=4.148e-9 dlcig=0.0 aigbacc=1.0 bigbacc=0.0 cigbacc=0.0 nigbacc=0.0 aigbinv=0.35 bigbinv=0.03 cigbinv=0.006 eigbinv=1.1 nigbinv=0.0 aigc=0.43 bigc=0.054 cigc=0.075 aigsd=0.43 bigsd=0.054 cigsd=0.075 nigc=0.0 poxedge=1.0 pigcd=1.0 ntox=1.0 vfbsdoff=0.0 dlc=-6.13e-10 dwc=2.252e-8 xpart=0.0 cgso=2.4892e-10 cgdo=2.4892e-10 cgbo=1.0e-13 cgdl=0.0 cgsl=0.0 clc=1.0e-7 cle=0.6 cf=1.4067e-12 ckappas=0.6 vfbcv=-1.0 acde=0.4 moin=6.9 noff=3.4037 voffcv=-0.17287 xrcrg1=12.0 xrcrg2=1.0 rbpb=50.0 rbpd=50.0 rbps=50.0 rbdb=50.0 rbsb=50.0 gbmin=1.0e-12 ef=0.84 noia=2.5e+42 noib=0.0 noic=0.0 em=41000000.0 ntnoi=1.0 lintnoi=-1.0e-7 af=1.0 kf=0.0 tnoia=15000000.0 tnoib=9900000.0 rnoia=0.94 rnoib=0.26 xl=0.0 xw=0.0 dmcg=0.0 dmdg=0.0 dmcgt=0.0 xgw=0.0 xgl=0.0 ngcon=1.0 jss=0.00275 jsws=6.0e-10 ijthsfwd=0.1 ijthsrev=0.1 bvs=11.7 xjbvs=1.0 pbs=0.729 cjs=0.00154845795 mjs=0.44 pbsws=0.2 cjsws=4.24559793e-11 mjsws=0.0009 pbswgs=0.95578 cjswgs=2.75331171e-10 mjswgs=0.8 tnom=30.0 kt1=-3.090922339e-01 lkt1=-9.206011784e-09 wkt1=2.796662331e-07 pkt1=3.553241023e-14 kt2=-4.863049774e-02 lkt2=7.061636498e-10 wkt2=2.207618376e-07 pkt2=-7.193688096e-14 at=1.718992706e+05 lat=-2.621450440e-02 wat=-6.813620641e-01 pat=1.124102735e-7 ute=-2.113891966e+00 lute=1.889497800e-07 wute=1.221752792e-05 pute=-5.044270011e-12 ua1=-3.811741320e-10 lua1=4.098967755e-16 wua1=2.534894290e-14 pua1=-1.031657662e-20 ub1=-8.376487019e-20 lub1=-2.173857157e-25 wub1=-1.142201320e-23 pub1=3.360051755e-30 uc1=1.675069851e-11 luc1=1.171555108e-17 wuc1=7.516671442e-16 puc1=-5.624804104e-22 kt1l=0.0 prt=0.0 tvoff=0.0 njs=1.2928 tpb=0.0012287 tcj=0.000792 tpbsw=0.0 tcjsw=1.0e-5 tpbswg=0.0 tcjswg=0.0 xtis=2.0 tvfbsdoff=0.0 ll=0.0 wl=0.0 lln=1.0 wln=1.0 lw=0.0 ww=0.0 lwn=1.0 wwn=1.0 lwl=0.0 wwl=0.0 llc=0.0 wlc=0.0 lwc=0.0 wwc=0.0 lwlc=0.0 wwlc=0.0 saref=1.75e-6 sbref=1.74e-6 kvth0=9.8e-9 lkvth0=0.0 wkvth0=2.0e-7 pkvth0=0.0 llodvth=0.0 wlodvth=1.0 wlod=0.0 stk2=0.0 lodk2=1.0 lodeta0=1.0 ku0=-2.7e-8 lku0=0.0 wku0=0.0 pku0=0.0 tku0=0.0 llodku0=0.0 wlodku0=1.0 kvsat=0.2 steta0=0.0
Netlist line no. 1394:
Cannot compute substitute
Netlist line no. 1665:
Undefined parameter [l]
Netlist line no. 1665:
 Expression err: l*w*mult)))} toxm=4.148e-9 dtox=0.0 epsrox=3.9 xj=1.5e-7 ngate=1.0e+23 ndep=1.7e+17 nsd=1.0e+20 rsh=1.0 rshg=0.1 wint=4.4379e-8 lint=-1.955e-10 vth0={5.227182158e-01+mc_mm_switch*agauss(0,1.0,1)*(sky130_fd_pr__nfet_01v8__vth0_slope/sqrt(l*w*mult))} lvth0=1.800481472e-09 wvth0=7.434879268e-07 pvth0=-1.798883401e-13 k1=5.751953467e-01 lk1=-1.027980420e-08 wk1=-2.528768193e-06 pk1=1.027068006e-12 k2=-4.206457837e-02 lk2=3.146595520e-09 wk2=8.130669341e-07 pk2=-3.143802665e-13 k3=2.0 k3b=0.54 w0=0.0 dvt0=0.0 dvt1=0.53 dvt2=-0.032 dvt0w=-3.58 dvt1w=1670600.0 dvt2w=0.068 dsub=2.620200156e-01 ldsub=-6.049593613e-09 wdsub=-2.018222635e-07 pdsub=6.044224115e-13 minv=0.0 voffl=5.8197729e-9 lpe0=1.0325e-7 lpeb=-7.082e-8 vbm=-3.0 dvtp0=0.0 dvtp1=0.0 phin=0.0 cdsc=0.0 cdscb=0.0 cdscd=0.0054 cit=0.0 voff={-1.001123163e-01+mc_mm_switch*agauss(0,1.0,1)*(sky130_fd_pr__nfet_01v8__voff_slope/sqrt(l*w*mult))} lvoff=2.999688846e-10 wvoff=-1.803721310e-07 pvoff=-2.997026382e-14 nfactor=2.794368815e+00 lnfactor=-9.906720777e-09 wnfactor=-1.353678888e-06 pnfactor=9.897927770e-13 eta0=-3.587691354e-02 weta0=3.634462612e-6 etab=-5.576476861e-04 letab=2.150245380e-11 wetab=5.690606260e-09 petab=-2.148336865e-15 u0=2.884172015e-02 lu0=2.913665383e-10 wu0=1.902108677e-08 pu0=-2.911079271e-14 ua=-9.107021033e-10 lua=1.909277112e-17 wua=-1.267630543e-15 pua=-1.907582476e-21 ub=1.625779571e-18 lub=-9.565450053e-27 wub=2.428885150e-24 pub=9.556959951e-31 uc=7.382403576e-11 luc=-6.849250921e-20 wuc=4.895293557e-17 puc=6.843171663e-24 ud=0.0 up=0.0 lp=1.0 eu=1.67 vtl=0.0 xn=3.0 vsat=8.033205551e+04 lvsat=-1.544329172e-03 wvsat=-3.317607853e-02 pvsat=1.542958456e-7 a0=1.297201665e+00 wa0=1.401588370e-6 ags=3.754990731e-01 lags=4.582811817e-08 wags=1.456125693e-05 pags=-4.578744205e-12 a1=0.0 a2=0.42385546 b0=0.0 b1=0.0 keta=9.873100969e-04 lketa=4.360031644e-10 wketa=-1.113640774e-07 pketa=-4.356161767e-14 dwg=0.0 dwb=0.0 pclm=5.515509861e-01 lpclm=4.641028587e-09 wpclm=7.592269146e-07 ppclm=-4.636909303e-13 pdiblc1=2.790320437e-01 lpdiblc1=3.284374068e-08 wpdiblc1=1.108694633e-05 ppdiblc1=-3.281458923e-12 pdiblc2=4.849674909e-03 lpdiblc2=3.297917298e-11 wpdiblc2=-3.714850765e-09 ppdiblc2=-3.294990132e-15 pdiblcb=-3.988613158e-02 lpdiblcb=7.448886265e-09 wpdiblcb=1.487291894e-06 ppdiblcb=-7.442274783e-13 drout=6.018597706e-01 ldrout=-1.866868219e-08 wdrout=-4.182261671e-06 pdrout=1.865211224e-12 pscbe1=8.355768263e+08 lpscbe1=-8.908117125e+00 wpscbe1=-3.554524907e+03 ppscbe1=8.900210459e-4 pscbe2=1.0e-12 pvag=0.0 delta=0.01 fprout=0.0 pdits=0.0 pditsl=0.0 pditsd=0.0 lambda=0.0 lc=5.0e-9 rdsw=65.968 rsw=0.0 rdw=0.0 rdswmin=0.0 rdwmin=0.0 rswmin=0.0 prwb=0.0 prwg=0.021507 wr=1.0 alpha0=-6.637441582e-07 lalpha0=1.251412893e-13 walpha0=6.931284048e-11 palpha0=-1.250302163e-17 alpha1=0.85 beta0=1.351722554e+01 lbeta0=-1.217892904e-08 wbeta0=3.424702199e-05 pbeta0=1.216811927e-12 agidl=0.0 bgidl=2300000000.0 cgidl=0.5 egidl=0.8 toxref=4.148e-9 dlcig=0.0 aigbacc=1.0 bigbacc=0.0 cigbacc=0.0 nigbacc=0.0 aigbinv=0.35 bigbinv=0.03 cigbinv=0.006 eigbinv=1.1 nigbinv=0.0 aigc=0.43 bigc=0.054 cigc=0.075 aigsd=0.43 bigsd=0.054 cigsd=0.075 nigc=0.0 poxedge=1.0 pigcd=1.0 ntox=1.0 vfbsdoff=0.0 dlc=-6.13e-10 dwc=2.252e-8 xpart=0.0 cgso=2.4892e-10 cgdo=2.4892e-10 cgbo=1.0e-13 cgdl=0.0 cgsl=0.0 clc=1.0e-7 cle=0.6 cf=1.4067e-12 ckappas=0.6 vfbcv=-1.0 acde=0.4 moin=6.9 noff=3.4037 voffcv=-0.17287 xrcrg1=12.0 xrcrg2=1.0 rbpb=50.0 rbpd=50.0 rbps=50.0 rbdb=50.0 rbsb=50.0 gbmin=1.0e-12 ef=0.84 noia=2.5e+42 noib=0.0 noic=0.0 em=41000000.0 ntnoi=1.0 lintnoi=-1.0e-7 af=1.0 kf=0.0 tnoia=15000000.0 tnoib=9900000.0 rnoia=0.94 rnoib=0.26 xl=0.0 xw=0.0 dmcg=0.0 dmdg=0.0 dmcgt=0.0 xgw=0.0 xgl=0.0 ngcon=1.0 jss=0.00275 jsws=6.0e-10 ijthsfwd=0.1 ijthsrev=0.1 bvs=11.7 xjbvs=1.0 pbs=0.729 cjs=0.00154845795 mjs=0.44 pbsws=0.2 cjsws=4.24559793e-11 mjsws=0.0009 pbswgs=0.95578 cjswgs=2.75331171e-10 mjswgs=0.8 tnom=30.0 kt1=-3.285997835e-01 lkt1=5.553904497e-10 wkt1=4.615683054e-07 pkt1=-5.548974962e-14 kt2=-4.750756286e-02 lkt2=1.442571426e-10 wkt2=1.058037935e-07 pkt2=-1.441291029e-14 at=1.174641194e+05 lat=1.024355308e-03 wat=-2.521879090e-01 pat=-1.023446111e-7 ute=-1.694739682e+00 lute=-2.079025088e-08 wute=-2.014242434e-06 pute=2.077179787e-12 ua1=4.631243163e-10 lua1=-1.258256929e-17 wua1=2.219596551e-15 pua1=1.257140126e-21 ub1=-4.860441619e-19 lub1=-1.608877868e-26 wub1=-7.919548334e-24 pub1=1.607449860e-30 uc1=4.788836180e-11 luc1=-3.865455391e-18 wuc1=-1.144215994e-15 puc1=3.862024490e-22 kt1l=0.0 prt=0.0 tvoff=0.0 njs=1.2928 tpb=0.0012287 tcj=0.000792 tpbsw=0.0 tcjsw=1.0e-5 tpbswg=0.0 tcjswg=0.0 xtis=2.0 tvfbsdoff=0.0 ll=0.0 wl=0.0 lln=1.0 wln=1.0 lw=0.0 ww=0.0 lwn=1.0 wwn=1.0 lwl=0.0 wwl=0.0 llc=0.0 wlc=0.0 lwc=0.0 wwc=0.0 lwlc=0.0 wwlc=0.0 saref=1.25e-6 sbref=1.24e-6 kvth0=9.8e-9 lkvth0=0.0 wkvth0=2.0e-7 pkvth0=0.0 llodvth=0.0 wlodvth=1.0 wlod=0.0 stk2=0.0 lodk2=1.0 lodeta0=1.0 ku0=-2.7e-8 lku0=0.0 wku0=0.0 pku0=0.0 tku0=0.0 llodku0=0.0 wlodku0=1.0 kvsat=0.2 steta0=0.0
Netlist line no. 1665:
Cannot compute substitute
Netlist line no. 1936:
Undefined parameter [l]
Netlist line no. 1936:
 Expression err: l*w*mult)))} toxm=4.148e-9 dtox=0.0 epsrox=3.9 xj=1.5e-7 ngate=1.0e+23 ndep=1.7e+17 nsd=1.0e+20 rsh=1.0 rshg=0.1 wint=4.4379e-8 lint=-1.955e-10 vth0={5.217879014e-01+mc_mm_switch*agauss(0,1.0,1)*(sky130_fd_pr__nfet_01v8__vth0_slope/sqrt(l*w*mult))} lvth0=2.033423839e-09 wvth0=8.364367992e-07 pvth0=-2.031619012e-13 k1=5.580741000e-01 lk1=-5.992798130e-09 wk1=-8.181631732e-07 pk1=5.987479042e-13 k2=-3.813298494e-02 lk2=2.162159909e-09 wk2=4.202565515e-07 pk2=-2.160240819e-13 k3=2.0 k3b=0.54 w0=0.0 dvt0=0.0 dvt1=0.53 dvt2=-0.032 dvt0w=-3.58 dvt1w=1670600.0 dvt2w=0.068 dsub=2.074114547e-01 ldsub=7.623898551e-09 wdsub=5.254186876e-06 pdsub=-7.617131731e-13 minv=0.0 voffl=5.8197729e-9 lpe0=1.0325e-7 lpeb=-7.082e-8 vbm=-3.0 dvtp0=0.0 dvtp1=0.0 phin=0.0 cdsc=0.0 cdscb=0.0 cdscd=0.0054 cit=0.0 voff={-1.013136585e-01+mc_mm_switch*agauss(0,1.0,1)*(sky130_fd_pr__nfet_01v8__voff_slope/sqrt(l*w*mult))} lvoff=6.007741479e-10 wvoff=-6.034454434e-08 pvoff=-6.002409128e-14 nfactor=2.779488868e+00 lnfactor=-6.180916116e-09 wnfactor=1.329950388e-07 pnfactor=6.175430059e-13 eta0=-1.237830042e-01 leta0=2.201089394e-08 weta0=1.241726931e-05 peta0=-2.199135751e-12 etab=-5.732090360e-03 letab=1.317136329e-09 wetab=5.226756005e-07 petab=-1.315967266e-13 u0=3.284169641e-02 lu0=-7.101915170e-10 wu0=-3.806215092e-07 pu0=7.095611652e-14 ua=-5.723411799e-10 lua=-6.562975886e-17 wua=-3.507369065e-14 pua=6.557150720e-21 ub=1.418298767e-18 lub=4.238587584e-26 wub=2.315854993e-23 pub=-4.234825498e-30 uc=7.389731697e-11 luc=-8.684146528e-20 wuc=4.163131861e-17 puc=8.676438653e-24 ud=0.0 up=0.0 lp=1.0 eu=1.67 vtl=0.0 xn=3.0 vsat=7.493865736e+04 lvsat=-1.938708140e-04 wvsat=5.056850298e-01 pvsat=1.936987381e-8 a0=1.297201665e+00 wa0=1.401588370e-6 ags=7.941716087e-01 lags=-5.900371670e-08 wags=-2.726883609e-05 pags=5.895134618e-12 a1=0.0 a2=0.42385546 b0=0.0 b1=0.0 keta=2.597134530e-03 lketa=3.291761466e-11 wketa=-2.722036359e-07 pketa=-3.288839764e-15 dwg=0.0 dwb=0.0 pclm=5.460401978e-01 lpclm=6.020880387e-09 wpclm=1.309816620e-06 ppclm=-6.015536374e-13 pdiblc1=4.593656043e-01 lpdiblc1=-1.231015988e-08 wpdiblc1=-6.930403679e-06 ppdiblc1=1.229923363e-12 pdiblc2=6.185918179e-03 lpdiblc2=-3.016041156e-10 wpdiblc2=-1.372205755e-07 ppdiblc2=3.013364178e-14 pdiblcb=1.641448547e-02 lpdiblcb=-6.648281538e-09 wpdiblcb=-4.137772680e-06 ppdiblcb=6.642380656e-13 drout=4.730856358e-01 ldrout=1.357520219e-08 wdrout=8.683722070e-06 pdrout=-1.356315311e-12 pscbe1=7.992141395e+08 lpscbe1=1.967724026e-01 wpscbe1=7.851630106e+01 ppscbe1=-1.965977514e-5 pscbe2=1.0e-12 pvag=0.0 delta=0.01 fprout=0.0 pdits=0.0 pditsl=0.0 pditsd=0.0 lambda=0.0 lc=5.0e-9 rdsw=65.968 rsw=0.0 rdw=0.0 rdswmin=0.0 rdwmin=0.0 rswmin=0.0 prwb=0.0 prwg=0.021507 wr=1.0 alpha0=-6.676681667e-07 lalpha0=1.261238257e-13 walpha0=6.970489304e-11 palpha0=-1.260118807e-17 alpha1=9.153238386e-01 lalpha1=-1.635650127e-08 walpha1=-6.526585848e-06 palpha1=1.634198357e-12 beta0=1.267822682e+01 lbeta0=1.978988002e-07 wbeta0=1.180724264e-04 pbeta0=-1.977231492e-11 agidl=0.0 bgidl=2300000000.0 cgidl=0.5 egidl=0.8 toxref=4.148e-9 dlcig=0.0 aigbacc=1.0 bigbacc=0.0 cigbacc=0.0 nigbacc=0.0 aigbinv=0.35 bigbinv=0.03 cigbinv=0.006 eigbinv=1.1 nigbinv=0.0 aigc=0.43 bigc=0.054 cigc=0.075 aigsd=0.43 bigsd=0.054 cigsd=0.075 nigc=0.0 poxedge=1.0 pigcd=1.0 ntox=1.0 vfbsdoff=0.0 dlc=-6.13e-10 dwc=2.252e-8 xpart=0.0 cgso=2.4892e-10 cgdo=2.4892e-10 cgbo=1.0e-13 cgdl=0.0 cgsl=0.0 clc=1.0e-7 cle=0.6 cf=1.4067e-12 ckappas=0.6 vfbcv=-1.0 acde=0.4 moin=6.9 noff=3.4037 voffcv=-0.17287 xrcrg1=12.0 xrcrg2=1.0 rbpb=50.0 rbpd=50.0 rbps=50.0 rbdb=50.0 rbsb=50.0 gbmin=1.0e-12 ef=0.84 noia=2.5e+42 noib=0.0 noic=0.0 em=41000000.0 ntnoi=1.0 lintnoi=-1.0e-7 af=1.0 kf=0.0 tnoia=15000000.0 tnoib=9900000.0 rnoia=0.94 rnoib=0.26 xl=0.0 xw=0.0 dmcg=0.0 dmdg=0.0 dmcgt=0.0 xgw=0.0 xgl=0.0 ngcon=1.0 jss=0.00275 jsws=6.0e-10 ijthsfwd=0.1 ijthsrev=0.1 bvs=11.7 xjbvs=1.0 pbs=0.729 cjs=0.00154845795 mjs=0.44 pbsws=0.2 cjsws=4.24559793e-11 mjsws=0.0009 pbswgs=0.95578 cjswgs=2.75331171e-10 mjswgs=0.8 tnom=30.0 kt1=-3.201512214e-01 lkt1=-1.560053457e-09 wkt1=-3.825380247e-07 pkt1=1.558668785e-13 kt2=-4.620558524e-02 lkt2=-1.817463356e-10 wkt2=-2.427840760e-08 pkt2=1.815850212e-14 at=1.234782819e+05 lat=-4.815368361e-04 wat=-8.530703467e-01 pat=4.811094336e-8 ute=-1.960769993e+00 lute=4.582134483e-08 wute=2.456517639e-05 pute=-4.578067472e-12 ua1=2.689415591e-11 lua1=9.664553680e-17 wua1=4.580389367e-14 pua1=-9.655975615e-21 ub1=-2.277319808e-19 lub1=-8.076782403e-26 wub1=-3.372783918e-23 pub1=8.069613612e-30 uc1=4.041130723e-11 luc1=-1.993268220e-18 wuc1=-3.971741856e-16 puc1=1.991499035e-22 kt1l=0.0 prt=0.0 tvoff=0.0 njs=1.2928 tpb=0.0012287 tcj=0.000792 tpbsw=0.0 tcjsw=1.0e-5 tpbswg=0.0 tcjswg=0.0 xtis=2.0 tvfbsdoff=0.0 ll=0.0 wl=0.0 lln=1.0 wln=1.0 lw=0.0 ww=0.0 lwn=1.0 wwn=1.0 lwl=0.0 wwl=0.0 llc=0.0 wlc=0.0 lwc=0.0 wwc=0.0 lwlc=0.0 wwlc=0.0 saref=1.1e-6 sbref=1.1e-6 kvth0=9.8e-9 lkvth0=0.0 wkvth0=2.0e-7 pkvth0=0.0 llodvth=0.0 wlodvth=1.0 wlod=0.0 stk2=0.0 lodk2=1.0 lodeta0=1.0 ku0=-2.7e-8 lku0=0.0 wku0=0.0 pku0=0.0 tku0=0.0 llodku0=0.0 wlodku0=1.0 kvsat=0.2 steta0=0.0
Netlist line no. 1936:
Cannot compute substitute
Netlist line no. 2207:
Undefined parameter [l]
Netlist line no. 2207:
 Expression err: l*w*mult)))} toxm=4.148e-9 dtox=0.0 epsrox=3.9 xj=1.5e-7 ngate=1.0e+23 ndep=1.7e+17 nsd=1.0e+20 rsh=1.0 rshg=0.1 wint=4.4379e-8 lint=-1.955e-10 vth0={5.265882882e-01+mc_mm_switch*agauss(0,1.0,1)*(sky130_fd_pr__nfet_01v8__vth0_slope/sqrt(l*w*mult))} lvth0=1.167477261e-09 wvth0=3.568241907e-07 pvth0=-1.166441032e-13 k1=5.308143895e-01 lk1=-1.075391689e-09 wk1=1.905388362e-06 pk1=1.074437193e-13 k2=-3.070339202e-02 lk2=8.219282118e-10 wk2=-3.220433053e-07 pk2=-8.211986848e-14 k3=2.0 k3b=0.54 w0=0.0 dvt0=0.0 dvt1=0.53 dvt2=-0.032 dvt0w=-3.58 dvt1w=1670600.0 dvt2w=0.068 dsub=2.226984096e-01 ldsub=4.866269467e-09 wdsub=3.726848225e-06 pdsub=-4.861950264e-13 minv=0.0 voffl=5.8197729e-9 lpe0=1.0325e-7 lpeb=-7.082e-8 vbm=-3.0 dvtp0=0.0 dvtp1=0.0 phin=0.0 cdsc=0.0 cdscb=0.0 cdscd=3.388280476e-03 lcdscd=3.628961577e-10 wcdscd=2.009934300e-07 pcdscd=-3.625740583e-14 cit=0.0 voff={-1.214533238e-01+mc_mm_switch*agauss(0,1.0,1)*(sky130_fd_pr__nfet_01v8__voff_slope/sqrt(l*w*mult))} lvoff=4.233788507e-09 wvoff=1.951834427e-06 pvoff=-4.230030681e-13 nfactor=1.992446753e+00 lnfactor=1.357943982e-07 wnfactor=7.876735031e-05 pnfactor=-1.356738698e-11 eta0=-1.301640020e-02 leta0=2.029595483e-09 weta0=1.350440331e-06 peta0=-2.027794055e-13 etab=-3.731961242e-03 letab=9.563310376e-10 wetab=3.228402161e-07 petab=-9.554822173e-14 u0=2.448748741e-02 lu0=7.968325985e-10 wu0=4.540578878e-07 pu0=-7.961253458e-14 ua=-1.520016895e-09 lua=1.053224110e-16 wua=5.960976703e-14 pua=-1.052289289e-20 ub=2.170143346e-18 lub=-9.324011946e-26 wub=-5.195917567e-23 pub=9.315736139e-30 uc=6.102110797e-11 luc=2.235910752e-18 wuc=1.328109352e-15 puc=-2.233926203e-22 ud=0.0 up=0.0 lp=1.0 eu=1.67 vtl=0.0 xn=3.0 vsat=7.925236073e+04 lvsat=-9.720240787e-04 wvsat=7.469756841e-02 pvsat=9.711613296e-8 a0=1.297201665e+00 wa0=1.401588370e-6 ags=4.670836902e-01 wags=5.410924083e-6 a1=0.0 a2=0.42385546 b0=0.0 b1=0.0 keta=2.578400295e-02 lketa=-4.149784766e-09 wketa=-2.588832458e-06 pketa=4.146101501e-13 dwg=0.0 dwb=0.0 pclm=5.358521201e-01 lpclm=7.858717904e-09 wpclm=2.327720113e-06 ppclm=-7.851742663e-13 pdiblc1=3.955332388e-01 lpdiblc1=-7.953756376e-10 wpdiblc1=-5.528327618e-07 ppdiblc1=7.946696781e-14 pdiblc2=4.783093782e-03 lpdiblc2=-4.854721977e-11 wpdiblc2=2.937352361e-09 ppdiblc2=4.850413023e-15 pdiblcb=1.172724263e-02 lpdiblcb=-5.802745115e-09 wpdiblcb=-3.669464427e-06 ppdiblcb=5.797594714e-13 drout=4.811642345e-01 ldrout=1.211789570e-08 wdrout=7.876579247e-06 pdrout=-1.210714010e-12 pscbe1=7.983077928e+08 lpscbe1=3.602691928e-01 wpscbe1=1.690705270e+02 ppscbe1=-3.599494250e-5 pscbe2=1.0e-12 pvag=0.0 delta=0.01 fprout=0.0 pdits=0.0 pditsl=0.0 pditsd=0.0 lambda=0.0 lc=5.0e-9 rdsw=65.968 rsw=0.0 rdw=0.0 rdswmin=0.0 rdwmin=0.0 rswmin=0.0 prwb=0.0 prwg=0.021507 wr=1.0 alpha0=3.902558023e-08 lalpha0=-1.357366036e-15 walpha0=-9.017569302e-13 palpha0=1.356161265e-19 alpha1=6.975777099e-01 lalpha1=2.292294063e-08 walpha1=1.522870031e-05 palpha1=-2.290259469e-12 beta0=1.335058513e+01 lbeta0=7.661141107e-08 wbeta0=5.089627193e-05 pbeta0=-7.654341232e-12 agidl=0.0 bgidl=2300000000.0 cgidl=0.5 egidl=0.8 toxref=4.148e-9 dlcig=0.0 aigbacc=1.0 bigbacc=0.0 cigbacc=0.0 nigbacc=0.0 aigbinv=0.35 bigbinv=0.03 cigbinv=0.006 eigbinv=1.1 nigbinv=0.0 aigc=0.43 bigc=0.054 cigc=0.075 aigsd=0.43 bigsd=0.054 cigsd=0.075 nigc=0.0 poxedge=1.0 pigcd=1.0 ntox=1.0 vfbsdoff=0.0 dlc=-6.13e-10 dwc=2.252e-8 xpart=0.0 cgso=2.4892e-10 cgdo=2.4892e-10 cgbo=1.0e-13 cgdl=0.0 cgsl=0.0 clc=1.0e-7 cle=0.6 cf=1.4067e-12 ckappas=0.6 vfbcv=-1.0 acde=0.4 moin=6.9 noff=3.4037 voffcv=-0.17287 xrcrg1=12.0 xrcrg2=1.0 rbpb=50.0 rbpd=50.0 rbps=50.0 rbdb=50.0 rbsb=50.0 gbmin=1.0e-12 ef=0.84 noia=2.5e+42 noib=0.0 noic=0.0 em=41000000.0 ntnoi=1.0 lintnoi=-1.0e-7 af=1.0 kf=0.0 tnoia=15000000.0 tnoib=9900000.0 rnoia=0.94 rnoib=0.26 xl=0.0 xw=0.0 dmcg=0.0 dmdg=0.0 dmcgt=0.0 xgw=0.0 xgl=0.0 ngcon=1.0 jss=0.00275 jsws=6.0e-10 ijthsfwd=0.1 ijthsrev=0.1 bvs=11.7 xjbvs=1.0 pbs=0.729 cjs=0.00154845795 mjs=0.44 pbsws=0.2 cjsws=4.24559793e-11 mjsws=0.0009 pbswgs=0.95578 cjswgs=2.75331171e-10 mjswgs=0.8 tnom=30.0 kt1=-3.125161885e-01 lkt1=-2.937344671e-09 wkt1=-1.145363641e-06 pkt1=2.934737543e-13 kt2=-4.470679961e-02 lkt2=-4.521137749e-10 wkt2=-1.740239417e-07 pkt2=4.517124877e-14 at=1.196028009e+05 lat=2.175650501e-04 wat=-4.658662305e-01 pat=-2.173719438e-8 ute=-1.027076231e+00 lute=-1.226086066e-07 wute=-6.872132702e-05 pute=1.224997816e-11 ua1=1.509264701e-09 lua1=-1.707607682e-16 wua1=-1.023015886e-13 pua1=1.706092044e-20 ub1=-1.217957253e-18 lub1=9.785990313e-26 wub1=6.520679767e-23 pub1=-9.777304464e-30 uc1=3.948670632e-11 luc1=-1.826478539e-18 wuc1=-3.047961609e-16 puc1=1.824857393e-22 kt1l=0.0 prt=0.0 tvoff=0.0 njs=1.2928 tpb=0.0012287 tcj=0.000792 tpbsw=0.0 tcjsw=1.0e-5 tpbswg=0.0 tcjswg=0.0 xtis=2.0 tvfbsdoff=0.0 ll=0.0 wl=0.0 lln=1.0 wln=1.0 lw=0.0 ww=0.0 lwn=1.0 wwn=1.0 lwl=0.0 wwl=0.0 llc=0.0 wlc=0.0 lwc=0.0 wwc=0.0 lwlc=0.0 wwlc=0.0 saref=1.04e-6 sbref=1.04e-6 kvth0=9.8e-9 lkvth0=0.0 wkvth0=2.0e-7 pkvth0=0.0 llodvth=0.0 wlodvth=1.0 wlod=0.0 stk2=0.0 lodk2=1.0 lodeta0=1.0 ku0=-2.7e-8 lku0=0.0 wku0=0.0 pku0=0.0 tku0=0.0 llodku0=0.0 wlodku0=1.0 kvsat=0.2 steta0=0.0
Netlist line no. 2207:
Cannot compute substitute
Netlist line no. 2478:
Undefined parameter [l]
Netlist line no. 2478:
 Expression err: l*w*mult)))} toxm=4.148e-9 dtox=0.0 epsrox=3.9 xj=1.5e-7 ngate=1.0e+23 ndep=1.7e+17 nsd=1.0e+20 rsh=1.0 rshg=0.1 wint=4.4379e-8 lint=-1.955e-10 vth0={5.183061289e-01+mc_mm_switch*agauss(0,1.0,1)*(sky130_fd_pr__nfet_01v8__vth0_slope/sqrt(l*w*mult))} lvth0=-1.906036344e-07 wvth0=-1.317302693e-08 pvth0=1.317307844e-12 k1=5.418096583e-01 lk1=-9.440119709e-08 wk1=-6.524269672e-09 pk1=6.524295182e-13 k2=-2.732440569e-02 lk2=7.141174787e-08 wk2=4.935419414e-09 pk2=-4.935438712e-13 k3=2.0 k3b=0.54 w0=0.0 dvt0=0.0 dvt1=0.53 dvt2=-0.032 dvt0w=-3.58 dvt1w=1670600.0 dvt2w=0.068 dsub=0.56 minv=0.0 voffl=5.8197729e-9 lpe0=1.0325e-7 lpeb=-7.082e-8 vbm=-3.0 dvtp0=0.0 dvtp1=0.0 phin=0.0 cdsc=0.0 cdscb=0.0 cdscd=0.0054 cit=0.0 voff={-1.045392417e-01+mc_mm_switch*agauss(0,1.0,1)*(sky130_fd_pr__nfet_01v8__voff_slope/sqrt(l*w*mult))} lvoff=-7.293611037e-08 wvoff=-5.040771383e-09 pvoff=5.040791093e-13 nfactor=2.602103866e+00 lnfactor=8.046644882e-06 wnfactor=5.561209263e-07 pnfactor=-5.561231007e-11 eta0=0.08 etab=-0.07 u0=3.108707864e-02 lu0=7.152163949e-09 wu0=4.943014260e-10 pu0=-4.943033587e-14 ua=-7.350589596e-10 lua=-2.166789508e-15 wua=-1.497514810e-16 pua=1.497520665e-20 ub=1.548267781e-18 lub=3.962237436e-24 wub=2.738387471e-25 pub=-2.738398178e-29 uc=4.773237748e-11 luc=1.509628425e-16 wuc=1.043336658e-17 puc=-1.043340737e-21 ud=0.0 up=0.0 lp=1.0 eu=1.67 vtl=0.0 xn=3.0 vsat=80000.0 a0=1.392893247e+00 la0=-9.133282667e-07 wa0=-6.312207996e-08 pa0=6.312232676e-12 ags=3.689872010e-01 lags=-1.412015200e-08 wags=-9.758740600e-10 pags=9.758778756e-14 a1=0.0 a2=0.42385546 b0=0.0 b1=8.136085451e-25 lb1=1.293738913e-28 wb1=8.941307755e-30 pb1=-8.941342715e-34 keta=-7.193719169e-03 lketa=-1.600887090e-07 wketa=-1.106407483e-08 pketa=1.106411809e-12 dwg=0.0 dwb=0.0 pclm=5.735933976e-02 lpclm=-3.104346114e-06 wpclm=-2.145480335e-07 ppclm=2.145488724e-11 pdiblc1=0.39 pdiblc2=3.147270094e-03 lpdiblc2=-7.381168258e-09 wpdiblc2=-5.101284061e-10 ppdiblc2=5.101304007e-14 pdiblcb=-0.025 drout=0.56 pscbe1=7.177508068e+08 lpscbe1=3.692349762e+03 wpscbe1=2.551862297e+02 ppscbe1=-2.551872275e-2 pscbe2=1.0e-12 pvag=0.0 delta=0.01 fprout=0.0 pdits=0.0 pditsl=0.0 pditsd=0.0 lambda=0.0 lc=5.0e-9 rdsw=65.968 rsw=0.0 rdw=0.0 rdswmin=0.0 rdwmin=0.0 rswmin=0.0 prwb=0.0 prwg=0.021507 wr=1.0 alpha0=3.0e-8 alpha1=0.85 beta0=13.86 agidl=0.0 bgidl=2300000000.0 cgidl=0.5 egidl=0.8 toxref=4.148e-9 dlcig=0.0 aigbacc=1.0 bigbacc=0.0 cigbacc=0.0 nigbacc=0.0 aigbinv=0.35 bigbinv=0.03 cigbinv=0.006 eigbinv=1.1 nigbinv=0.0 aigc=0.43 bigc=0.054 cigc=0.075 aigsd=0.43 bigsd=0.054 cigsd=0.075 nigc=0.0 poxedge=1.0 pigcd=1.0 ntox=1.0 vfbsdoff=0.0 dlc=-6.13e-10 dwc=2.252e-8 xpart=0.0 cgso=2.4892e-10 cgdo=2.4892e-10 cgbo=1.0e-13 cgdl=0.0 cgsl=0.0 clc=1.0e-7 cle=0.6 cf=1.4067e-12 ckappas=0.6 vfbcv=-1.0 acde=0.4 moin=6.9 noff=3.4037 voffcv=-0.17287 xrcrg1=12.0 xrcrg2=1.0 rbpb=50.0 rbpd=50.0 rbps=50.0 rbdb=50.0 rbsb=50.0 gbmin=1.0e-12 ef=0.84 noia=2.5e+42 noib=0.0 noic=0.0 em=41000000.0 ntnoi=1.0 lintnoi=-1.0e-7 af=1.0 kf=0.0 tnoia=15000000.0 tnoib=9900000.0 rnoia=0.94 rnoib=0.26 xl=0.0 xw=0.0 dmcg=0.0 dmdg=0.0 dmcgt=0.0 xgw=0.0 xgl=0.0 ngcon=1.0 jss=0.00275 jsws=6.0e-10 ijthsfwd=0.1 ijthsrev=0.1 bvs=11.7 xjbvs=1.0 pbs=0.729 cjs=0.00154845795 mjs=0.44 pbsws=0.2 cjsws=4.24559793e-11 mjsws=0.0009 pbswgs=0.95578 cjswgs=2.75331171e-10 mjswgs=0.8 tnom=30.0 kt1=-3.200102392e-01 lkt1=6.980266446e-07 wkt1=4.824212201e-08 pkt1=-4.824231063e-12 kt2=-4.543376669e-02 lkt2=1.204301625e-08 wkt2=8.323187428e-10 pkt2=-8.323219972e-14 at=140000.0 ute=-1.856558383e+00 lute=4.315855155e-06 wute=2.982780279e-07 pute=-2.982791942e-11 ua1=3.042407949e-10 lua1=7.177948574e-15 wua1=4.960834569e-16 pua1=-4.960853966e-20 ub1=-5.525849512e-19 lub1=-8.703538910e-24 wub1=-6.015202847e-25 pub1=6.015226366e-29 uc1=1.656470333e-11 luc1=-7.349932026e-17 wuc1=-5.079696030e-18 puc1=5.079715891e-22 kt1l=0.0 prt=0.0 tvoff=0.0 njs=1.2928 tpb=0.0012287 tcj=0.000792 tpbsw=0.0 tcjsw=1.0e-5 tpbswg=0.0 tcjswg=0.0 xtis=2.0 tvfbsdoff=0.0 ll=0.0 wl=0.0 lln=1.0 wln=1.0 lw=0.0 ww=0.0 lwn=1.0 wwn=1.0 lwl=0.0 wwl=0.0 llc=0.0 wlc=0.0 lwc=0.0 wwc=0.0 lwlc=0.0 wwlc=0.0 saref=3.0e-6 sbref=3.0e-6 kvth0=9.8e-9 lkvth0=0.0 wkvth0=2.0e-7 pkvth0=0.0 llodvth=0.0 wlodvth=1.0 wlod=0.0 stk2=0.0 lodk2=1.0 lodeta0=1.0 ku0=-2.7e-8 lku0=0.0 wku0=0.0 pku0=0.0 tku0=0.0 llodku0=0.0 wlodku0=1.0 kvsat=0.2 steta0=0.0
Netlist line no. 2478:
Cannot compute substitute
Netlist line no. 2749:
Undefined parameter [l]
Netlist line no. 2749:
 Expression err: l*w*mult)))} toxm=4.148e-9 dtox=0.0 epsrox=3.9 xj=1.5e-7 ngate=1.0e+23 ndep=1.7e+17 nsd=1.0e+20 rsh=1.0 rshg=0.1 wint=4.4379e-8 lint=-1.955e-10 vth0={5.087761335e-01+mc_mm_switch*agauss(0,1.0,1)*(sky130_fd_pr__nfet_01v8__vth0_slope/sqrt(l*w*mult))} wvth0=5.269107761e-8 k1=5.370896907e-01 wk1=2.609656850e-8 k2=-2.375388810e-02 wk2=-1.974129171e-8 k3=2.0 k3b=0.54 w0=0.0 dvt0=0.0 dvt1=0.53 dvt2=-0.032 dvt0w=-3.58 dvt1w=1670600.0 dvt2w=0.068 dsub=0.56 minv=0.0 voffl=5.8197729e-9 lpe0=1.0325e-7 lpeb=-7.082e-8 vbm=-3.0 dvtp0=0.0 dvtp1=0.0 phin=0.0 cdsc=0.0 cdscb=0.0 cdscd=0.0054 cit=0.0 voff={-1.081859760e-01+mc_mm_switch*agauss(0,1.0,1)*(sky130_fd_pr__nfet_01v8__voff_slope/sqrt(l*w*mult))} wvoff=2.016269135e-8 nfactor=3.004428244e+00 wnfactor=-2.224440217e-6 eta0=0.08 etab=-0.07 u0=3.144467985e-02 wu0=-1.977167050e-9 ua=-8.433963170e-10 wua=5.989942136e-16 ub=1.746375779e-18 wub=-1.095333575e-24 uc=5.528037204e-11 wuc=-4.173265045e-17 ud=0.0 up=0.0 lp=1.0 eu=1.67 vtl=0.0 xn=3.0 vsat=80000.0 a0=1.347227726e+00 wa0=2.524833838e-7 ags=3.682812072e-01 wags=3.903419928e-9 a1=0.0 a2=0.42385546 b0=0.0 b1=7.282176652e-24 wb1=-3.576453182e-29 keta=-1.519799814e-02 wketa=4.425543414e-8 dwg=0.0 dwb=0.0 pclm=-9.785493149e-02 wpclm=8.581753569e-7 pdiblc1=0.39 pdiblc2=2.778218896e-03 wpdiblc2=2.040473733e-9 pdiblcb=-0.025 drout=0.56 pscbe1=9.023646856e+08 wpscbe1=-1.020724964e+3 pscbe2=1.0e-12 pvag=0.0 delta=0.01 fprout=0.0 pdits=0.0 pditsl=0.0 pditsd=0.0 lambda=0.0 lc=5.0e-9 rdsw=65.968 rsw=0.0 rdw=0.0 rdswmin=0.0 rdwmin=0.0 rswmin=0.0 prwb=0.0 prwg=0.021507 wr=1.0 alpha0=3.0e-8 alpha1=0.85 beta0=13.86 agidl=0.0 bgidl=2300000000.0 cgidl=0.5 egidl=0.8 toxref=4.148e-9 dlcig=0.0 aigbacc=1.0 bigbacc=0.0 cigbacc=0.0 nigbacc=0.0 aigbinv=0.35 bigbinv=0.03 cigbinv=0.006 eigbinv=1.1 nigbinv=0.0 aigc=0.43 bigc=0.054 cigc=0.075 aigsd=0.43 bigsd=0.054 cigsd=0.075 nigc=0.0 poxedge=1.0 pigcd=1.0 ntox=1.0 vfbsdoff=0.0 dlc=-6.13e-10 dwc=2.252e-8 xpart=0.0 cgso=2.4892e-10 cgdo=2.4892e-10 cgbo=1.0e-13 cgdl=0.0 cgsl=0.0 clc=1.0e-7 cle=0.6 cf=1.4067e-12 ckappas=0.6 vfbcv=-1.0 acde=0.4 moin=6.9 noff=3.4037 voffcv=-0.17287 xrcrg1=12.0 xrcrg2=1.0 rbpb=50.0 rbpd=50.0 rbps=50.0 rbdb=50.0 rbsb=50.0 gbmin=1.0e-12 ef=0.84 noia=2.5e+42 noib=0.0 noic=0.0 em=41000000.0 ntnoi=1.0 lintnoi=-1.0e-7 af=1.0 kf=0.0 tnoia=15000000.0 tnoib=9900000.0 rnoia=0.94 rnoib=0.26 xl=0.0 xw=0.0 dmcg=0.0 dmdg=0.0 dmcgt=0.0 xgw=0.0 xgl=0.0 ngcon=1.0 jss=0.00275 jsws=6.0e-10 ijthsfwd=0.1 ijthsrev=0.1 bvs=11.7 xjbvs=1.0 pbs=0.729 cjs=0.00154845795 mjs=0.44 pbsws=0.2 cjsws=4.24559793e-11 mjsws=0.0009 pbswgs=0.95578 cjswgs=2.75331171e-10 mjswgs=0.8 tnom=30.0 kt1=-2.851095892e-01 wkt1=-1.929647156e-7 kt2=-4.483162765e-02 wkt2=-3.329209885e-9 at=140000.0 ute=-1.640769844e+00 wute=-1.193088787e-6 ua1=6.631312073e-10 wua1=-1.984295035e-15 ub1=-9.877533892e-19 wub1=2.406034101e-24 uc1=1.288980916e-11 wuc1=2.031838689e-17 kt1l=0.0 prt=0.0 tvoff=0.0 njs=1.2928 tpb=0.0012287 tcj=0.000792 tpbsw=0.0 tcjsw=1.0e-5 tpbswg=0.0 tcjswg=0.0 xtis=2.0 tvfbsdoff=0.0 ll=0.0 wl=0.0 lln=1.0 wln=1.0 lw=0.0 ww=0.0 lwn=1.0 wwn=1.0 lwl=0.0 wwl=0.0 llc=0.0 wlc=0.0 lwc=0.0 wwc=0.0 lwlc=0.0 wwlc=0.0 saref=3.0e-6 sbref=3.0e-6 kvth0=9.8e-9 lkvth0=0.0 wkvth0=2.0e-7 pkvth0=0.0 llodvth=0.0 wlodvth=1.0 wlod=0.0 stk2=0.0 lodk2=1.0 lodeta0=1.0 ku0=-2.7e-8 lku0=0.0 wku0=0.0 pku0=0.0 tku0=0.0 llodku0=0.0 wlodku0=1.0 kvsat=0.2 steta0=0.0
Netlist line no. 2749:
Cannot compute substitute
Netlist line no. 3020:
Undefined parameter [l]
Netlist line no. 3020:
 Expression err: l*w*mult)))} toxm=4.148e-9 dtox=0.0 epsrox=3.9 xj=1.5e-7 ngate=1.0e+23 ndep=1.7e+17 nsd=1.0e+20 rsh=1.0 rshg=0.1 wint=4.4379e-8 lint=-1.955e-10 vth0={4.945801811e-01+mc_mm_switch*agauss(0,1.0,1)*(sky130_fd_pr__nfet_01v8__vth0_slope/sqrt(l*w*mult))} lvth0=1.135731696e-07 wvth0=9.919214254e-08 pvth0=-3.720267014e-13 k1=5.247002949e-01 lk1=9.912001029e-08 wk1=4.849522359e-08 pk1=-1.791979986e-13 k2=-1.341469649e-02 lk2=-8.271757551e-08 wk2=-5.234112323e-08 pk2=2.608113986e-13 k3=2.0 k3b=0.54 w0=0.0 dvt0=0.0 dvt1=0.53 dvt2=-0.032 dvt0w=-3.58 dvt1w=1670600.0 dvt2w=0.068 dsub=0.56 minv=0.0 voffl=5.8197729e-9 lpe0=1.0325e-7 lpeb=-7.082e-8 vbm=-3.0 dvtp0=0.0 dvtp1=0.0 phin=0.0 cdsc=0.0 cdscb=0.0 cdscd=0.0054 cit=0.0 voff={-1.176212750e-01+mc_mm_switch*agauss(0,1.0,1)*(sky130_fd_pr__nfet_01v8__voff_slope/sqrt(l*w*mult))} lvoff=7.548608176e-08 wvoff=6.035436443e-08 pvoff=-3.215490996e-13 nfactor=3.334011302e+00 lnfactor=-2.636793325e-06 wnfactor=-4.690963835e-06 pnfactor=1.973315335e-11 eta0=0.08 etab=-0.07 u0=3.236097882e-02 lu0=-7.330750100e-09 wu0=-4.708130787e-09 pu0=2.184877770e-14 ua=-8.816945241e-10 lua=3.064006308e-16 wua=8.247914495e-16 pua=-1.806466174e-21 ub=1.939418182e-18 lub=-1.544414704e-24 wub=-1.954509363e-24 pub=6.873742243e-30 uc=1.750887724e-10 luc=-9.585140477e-16 wuc=-8.258875579e-16 puc=6.273545864e-21 ud=0.0 up=0.0 lp=1.0 eu=1.67 vtl=0.0 xn=3.0 vsat=80000.0 a0=1.744134619e+00 la0=-3.175410335e-06 wa0=-1.824983983e-06 pa0=1.662055123e-11 ags=4.446122939e-01 lags=-6.106785396e-07 wags=-6.564364828e-07 pags=5.282977415e-12 a1=0.0 a2=0.42385546 b0=0.0 b1=1.456506514e-23 lb1=-5.826595548e-29 wb1=-7.153255963e-29 pb1=2.861582077e-34 keta=-2.846204951e-02 lketa=1.061175972e-07 wketa=8.883768220e-08 pketa=-3.566754161e-13 dwg=0.0 dwb=0.0 pclm=-1.020401365e+00 lpclm=7.380732182e-06 wpclm=3.358577183e-06 ppclm=-2.000419226e-11 pdiblc1=0.39 pdiblc2=2.817055066e-03 lpdiblc2=-3.107045406e-10 wpdiblc2=1.653685082e-09 ppdiblc2=3.094460445e-15 pdiblcb=-0.025 drout=0.56 pscbe1=1.002114750e+09 lpscbe1=-7.980395141e+02 wpscbe1=-2.023410265e+03 ppscbe1=8.021874464e-3 pscbe2=1.0e-12 pvag=0.0 delta=0.01 fprout=0.0 pdits=0.0 pditsl=0.0 pditsd=0.0 lambda=0.0 lc=5.0e-9 rdsw=65.968 rsw=0.0 rdw=0.0 rdswmin=0.0 rdwmin=0.0 rswmin=0.0 prwb=0.0 prwg=0.021507 wr=1.0 alpha0=3.0e-8 alpha1=0.85 beta0=13.86 agidl=0.0 bgidl=2300000000.0 cgidl=0.5 egidl=0.8 toxref=4.148e-9 dlcig=0.0 aigbacc=1.0 bigbacc=0.0 cigbacc=0.0 nigbacc=0.0 aigbinv=0.35 bigbinv=0.03 cigbinv=0.006 eigbinv=1.1 nigbinv=0.0 aigc=0.43 bigc=0.054 cigc=0.075 aigsd=0.43 bigsd=0.054 cigsd=0.075 nigc=0.0 poxedge=1.0 pigcd=1.0 ntox=1.0 vfbsdoff=0.0 dlc=-6.13e-10 dwc=2.252e-8 xpart=0.0 cgso=2.4892e-10 cgdo=2.4892e-10 cgbo=1.0e-13 cgdl=0.0 cgsl=0.0 clc=1.0e-7 cle=0.6 cf=1.4067e-12 ckappas=0.6 vfbcv=-1.0 acde=0.4 moin=6.9 noff=3.4037 voffcv=-0.17287 xrcrg1=12.0 xrcrg2=1.0 rbpb=50.0 rbpd=50.0 rbps=50.0 rbdb=50.0 rbsb=50.0 gbmin=1.0e-12 ef=0.84 noia=2.5e+42 noib=0.0 noic=0.0 em=41000000.0 ntnoi=1.0 lintnoi=-1.0e-7 af=1.0 kf=0.0 tnoia=15000000.0 tnoib=9900000.0 rnoia=0.94 rnoib=0.26 xl=0.0 xw=0.0 dmcg=0.0 dmdg=0.0 dmcgt=0.0 xgw=0.0 xgl=0.0 ngcon=1.0 jss=0.00275 jsws=6.0e-10 ijthsfwd=0.1 ijthsrev=0.1 bvs=11.7 xjbvs=1.0 pbs=0.729 cjs=0.00154845795 mjs=0.44 pbsws=0.2 cjsws=4.24559793e-11 mjsws=0.0009 pbswgs=0.95578 cjswgs=2.75331171e-10 mjswgs=0.8 tnom=30.0 kt1=-2.599879651e-01 lkt1=-2.009828159e-07 wkt1=-3.520021936e-07 pkt1=1.272362008e-12 kt2=-3.218308448e-02 lkt2=-1.011932910e-07 wkt2=-8.299519008e-08 pkt2=6.373589910e-13 at=140000.0 ute=-1.122318637e+00 lute=-4.147812367e-06 wute=-4.501136221e-06 pute=2.646567292e-11 ua1=1.914829100e-09 lua1=-1.001407255e-14 wua1=-9.273710794e-15 pua1=5.831817624e-20 ub1=-2.188679232e-18 lub1=9.607876306e-24 wub1=8.923685280e-24 pub1=-5.214375783e-29 uc1=-2.772335591e-11 luc1=3.249212003e-16 wuc1=2.005914926e-16 puc1=-1.442255333e-21 kt1l=0.0 prt=0.0 tvoff=0.0 njs=1.2928 tpb=0.0012287 tcj=0.000792 tpbsw=0.0 tcjsw=1.0e-5 tpbswg=0.0 tcjswg=0.0 xtis=2.0 tvfbsdoff=0.0 ll=0.0 wl=0.0 lln=1.0 wln=1.0 lw=0.0 ww=0.0 lwn=1.0 wwn=1.0 lwl=0.0 wwl=0.0 llc=0.0 wlc=0.0 lwc=0.0 wwc=0.0 lwlc=0.0 wwlc=0.0 saref=3.0e-6 sbref=3.0e-6 kvth0=9.8e-9 lkvth0=0.0 wkvth0=2.0e-7 pkvth0=0.0 llodvth=0.0 wlodvth=1.0 wlod=0.0 stk2=0.0 lodk2=1.0 lodeta0=1.0 ku0=-2.7e-8 lku0=0.0 wku0=0.0 pku0=0.0 tku0=0.0 llodku0=0.0 wlodku0=1.0 kvsat=0.2 steta0=0.0
Netlist line no. 3020:
Cannot compute substitute
Netlist line no. 3291:
Undefined parameter [l]
Netlist line no. 3291:
 Expression err: l*w*mult)))} toxm=4.148e-9 dtox=0.0 epsrox=3.9 xj=1.5e-7 ngate=1.0e+23 ndep=1.7e+17 nsd=1.0e+20 rsh=1.0 rshg=0.1 wint=4.4379e-8 lint=-1.955e-10 vth0={5.209634013e-01+mc_mm_switch*agauss(0,1.0,1)*(sky130_fd_pr__nfet_01v8__vth0_slope/sqrt(l*w*mult))} lvth0=8.029972927e-09 wvth0=-2.343140173e-08 pvth0=1.185154215e-13 k1=5.756201135e-01 lk1=-1.045791735e-07 wk1=-1.760900728e-07 pk1=7.192310000e-13 k2=-4.238690165e-02 lk2=3.318257327e-08 wk2=8.189758849e-08 pk2=-2.761959356e-13 k3=2.0 k3b=0.54 w0=0.0 dvt0=0.0 dvt1=0.53 dvt2=-0.032 dvt0w=-3.58 dvt1w=1670600.0 dvt2w=0.068 dsub=8.600586500e-01 ldsub=-1.200351923e-6 minv=0.0 voffl=5.8197729e-9 lpe0=1.0325e-7 lpeb=-7.082e-8 vbm=-3.0 dvtp0=0.0 dvtp1=0.0 phin=0.0 cdsc=0.0 cdscb=0.0 cdscd=0.0054 cit=0.0 voff={-8.871463510e-02+mc_mm_switch*agauss(0,1.0,1)*(sky130_fd_pr__nfet_01v8__voff_slope/sqrt(l*w*mult))} lvoff=-4.015178051e-08 wvoff=-8.753635636e-08 pvoff=2.700716089e-13 nfactor=2.578836738e+00 lnfactor=3.842002027e-07 wnfactor=4.151540995e-07 pnfactor=-6.933148763e-13 eta0=1.595155422e-01 leta0=-3.180932596e-7 etab=-1.395111990e-01 letab=2.780719748e-07 wetab=-1.172884486e-11 petab=4.691996542e-17 u0=3.190674932e-02 lu0=-5.513654492e-09 wu0=2.325387804e-09 pu0=-6.288046772e-15 ua=-4.012728211e-10 lua=-1.615474026e-15 wua=-1.226773558e-15 pua=6.400596019e-21 ub=1.016314898e-18 lub=2.148359367e-24 wub=2.570356607e-24 pub=-1.122749086e-29 uc=-2.094599961e-10 luc=5.798313848e-16 wuc=1.526899684e-15 puc=-3.138523043e-21 ud=0.0 up=0.0 lp=1.0 eu=1.67 vtl=0.0 xn=3.0 vsat=80000.0 a0=4.829221617e-01 la0=1.869932630e-06 wa0=5.395974240e-06 pa0=-1.226610506e-11 ags=1.007210087e-01 lags=7.650210627e-07 wags=1.065226648e-06 pags=-1.604348279e-12 a1=0.0 a2=0.42385546 b0=0.0 b1=0.0 keta=-2.666402628e-05 lketa=-7.635062953e-09 wketa=-2.633306598e-08 pketa=1.040526084e-13 dwg=0.0 dwb=0.0 pclm=8.328770938e-01 lpclm=-3.310628388e-08 wpclm=-1.506523901e-06 ppclm=-5.418856722e-13 pdiblc1=0.39 pdiblc2=1.313149826e-03 lpdiblc2=5.705504444e-09 wpdiblc2=3.814462430e-10 ppdiblc2=8.183913246e-15 pdiblcb=-0.025 drout=0.56 pscbe1=8.052492556e+08 lpscbe1=-1.050056369e+01 wpscbe1=-3.627887587e+01 ppscbe1=7.257193679e-5 pscbe2=1.0e-12 pvag=0.0 delta=0.01 fprout=0.0 pdits=0.0 pditsl=0.0 pditsd=0.0 lambda=0.0 lc=5.0e-9 rdsw=65.968 rsw=0.0 rdw=0.0 rdswmin=0.0 rdwmin=0.0 rswmin=0.0 prwb=0.0 prwg=0.021507 wr=1.0 alpha0=3.0e-8 alpha1=0.85 beta0=13.86 agidl=0.0 bgidl=2300000000.0 cgidl=0.5 egidl=0.8 toxref=4.148e-9 dlcig=0.0 aigbacc=1.0 bigbacc=0.0 cigbacc=0.0 nigbacc=0.0 aigbinv=0.35 bigbinv=0.03 cigbinv=0.006 eigbinv=1.1 nigbinv=0.0 aigc=0.43 bigc=0.054 cigc=0.075 aigsd=0.43 bigsd=0.054 cigsd=0.075 nigc=0.0 poxedge=1.0 pigcd=1.0 ntox=1.0 vfbsdoff=0.0 dlc=-6.13e-10 dwc=2.252e-8 xpart=0.0 cgso=2.4892e-10 cgdo=2.4892e-10 cgbo=1.0e-13 cgdl=0.0 cgsl=0.0 clc=1.0e-7 cle=0.6 cf=1.4067e-12 ckappas=0.6 vfbcv=-1.0 acde=0.4 moin=6.9 noff=3.4037 voffcv=-0.17287 xrcrg1=12.0 xrcrg2=1.0 rbpb=50.0 rbpd=50.0 rbps=50.0 rbdb=50.0 rbsb=50.0 gbmin=1.0e-12 ef=0.84 noia=2.5e+42 noib=0.0 noic=0.0 em=41000000.0 ntnoi=1.0 lintnoi=-1.0e-7 af=1.0 kf=0.0 tnoia=15000000.0 tnoib=9900000.0 rnoia=0.94 rnoib=0.26 xl=0.0 xw=0.0 dmcg=0.0 dmdg=0.0 dmcgt=0.0 xgw=0.0 xgl=0.0 ngcon=1.0 jss=0.00275 jsws=6.0e-10 ijthsfwd=0.1 ijthsrev=0.1 bvs=11.7 xjbvs=1.0 pbs=0.729 cjs=0.00154845795 mjs=0.44 pbsws=0.2 cjsws=4.24559793e-11 mjsws=0.0009 pbswgs=0.95578 cjswgs=2.75331171e-10 mjswgs=0.8 tnom=30.0 kt1=-3.046290832e-01 lkt1=-2.240088868e-08 wkt1=-1.153616624e-08 pkt1=-8.963522397e-14 kt2=-5.804798575e-02 lkt2=2.276427313e-09 wkt2=8.035742164e-08 pkt2=-1.611532678e-14 at=1.680859036e+05 lat=-1.123545958e-01 wat=-2.087889194e-02 pat=8.352373143e-8 ute=-2.533283117e+00 lute=1.496597241e-06 wute=3.744207372e-06 pute=-6.518925380e-12 ua1=-1.720721890e-09 lua1=4.529552908e-15 wua1=1.101266336e-14 pua1=-2.283525236e-20 ub1=1.239220991e-18 lub1=-4.105064897e-24 wub1=-9.934323674e-24 pub1=2.329565147e-29 uc1=6.704513814e-11 luc1=-5.418983040e-17 wuc1=-2.955767185e-16 puc1=5.426115138e-22 kt1l=0.0 prt=0.0 tvoff=0.0 njs=1.2928 tpb=0.0012287 tcj=0.000792 tpbsw=0.0 tcjsw=1.0e-5 tpbswg=0.0 tcjswg=0.0 xtis=2.0 tvfbsdoff=0.0 ll=0.0 wl=0.0 lln=1.0 wln=1.0 lw=0.0 ww=0.0 lwn=1.0 wwn=1.0 lwl=0.0 wwl=0.0 llc=0.0 wlc=0.0 lwc=0.0 wwc=0.0 lwlc=0.0 wwlc=0.0 saref=3.0e-6 sbref=3.0e-6 kvth0=9.8e-9 lkvth0=0.0 wkvth0=2.0e-7 pkvth0=0.0 llodvth=0.0 wlodvth=1.0 wlod=0.0 stk2=0.0 lodk2=1.0 lodeta0=1.0 ku0=-2.7e-8 lku0=0.0 wku0=0.0 pku0=0.0 tku0=0.0 llodku0=0.0 wlodku0=1.0 kvsat=0.2 steta0=0.0
Netlist line no. 3291:
Cannot compute substitute
Netlist line no. 3562:
Undefined parameter [l]
Netlist line no. 3562:
 Expression err: l*w*mult)))} toxm=4.148e-9 dtox=0.0 epsrox=3.9 xj=1.5e-7 ngate=1.0e+23 ndep=1.7e+17 nsd=1.0e+20 rsh=1.0 rshg=0.1 wint=4.4379e-8 lint=-1.955e-10 vth0={5.009590040e-01+mc_mm_switch*agauss(0,1.0,1)*(sky130_fd_pr__nfet_01v8__vth0_slope/sqrt(l*w*mult))} lvth0=4.804658922e-08 wvth0=2.838853748e-08 pvth0=1.485528149e-14 k1=4.326433527e-01 lk1=1.814302520e-07 wk1=5.769365271e-07 pk1=-7.871166332e-13 k2=1.002041037e-02 lk2=-7.165254202e-08 wk2=-2.103838701e-07 pk2=3.084812637e-13 k3=2.0 k3b=0.54 w0=0.0 dvt0=0.0 dvt1=0.53 dvt2=-0.032 dvt0w=-3.58 dvt1w=1670600.0 dvt2w=0.068 dsub=1.146671521e+00 ldsub=-1.773689731e-06 wdsub=-6.128001457e-06 pdsub=1.225839896e-11 minv=0.0 voffl=5.8197729e-9 lpe0=1.0325e-7 lpeb=-7.082e-8 vbm=-3.0 dvtp0=0.0 dvtp1=0.0 phin=0.0 cdsc=0.0 cdscb=0.0 cdscd=0.0054 cit=0.0 voff={-1.037666527e-01+mc_mm_switch*agauss(0,1.0,1)*(sky130_fd_pr__nfet_01v8__voff_slope/sqrt(l*w*mult))} lvoff=-1.004185994e-08 wvoff=1.421977098e-07 pvoff=-1.894863494e-13 nfactor=2.844007348e+00 lnfactor=-1.462446987e-07 wnfactor=3.567086993e-07 pnfactor=-5.764012239e-13 eta0=-6.536868951e-03 leta0=1.407648932e-08 weta0=3.458955489e-08 peta0=-6.919263430e-14 etab=-9.720590370e-04 letab=9.395261037e-10 wetab=1.956595516e-09 petab=-3.890498372e-15 u0=3.281190827e-02 lu0=-7.324326295e-09 wu0=-1.031774403e-09 pu0=4.275902925e-16 ua=-9.154920735e-10 lua=-5.868344616e-16 wua=3.526536247e-15 pua=-3.107882135e-21 ub=1.951553603e-18 lub=2.775162797e-25 wub=-5.674383160e-24 pub=5.265212370e-30 uc=7.458568807e-11 luc=1.162895455e-17 wuc=9.105262328e-17 puc=-2.662675054e-22 ud=0.0 up=0.0 lp=1.0 eu=1.67 vtl=0.0 xn=3.0 vsat=1.932552128e+04 lvsat=1.213726812e-01 wvsat=2.789829365e-01 pvsat=-5.580749553e-7 a0=2.274545452e+00 la0=-1.714014475e-06 wa0=-5.530871569e-06 pa0=9.591858953e-12 ags=9.550908884e-01 lags=-9.440527552e-07 wags=-5.194649062e-06 pags=1.091785075e-11 a1=0.0 a2=0.42385546 b0=0.0 b1=0.0 keta=5.292897922e-02 lketa=-1.135670551e-07 wketa=8.233768337e-08 pketa=-1.133313806e-13 dwg=0.0 dwb=0.0 pclm=1.100280049e+00 lpclm=-5.680167483e-07 wpclm=-2.582002469e-06 ppclm=1.609491975e-12 pdiblc1=-2.003109147e-01 lpdiblc1=1.180852641e-06 wpdiblc1=1.886937729e-06 ppdiblc1=-3.774613251e-12 pdiblc2=6.869474325e-03 lpdiblc2=-5.409317078e-09 wpdiblc2=-8.677695359e-09 ppdiblc2=2.630573857e-14 pdiblcb=-4.958541047e-02 lpdiblcb=4.918043384e-08 wpdiblcb=-1.608228360e-09 ppdiblcb=3.217085537e-15 drout=8.601173000e-01 ldrout=-6.003519459e-7 pscbe1=2.355535924e+09 lpscbe1=-3.111680062e+03 wpscbe1=-7.024584736e+03 ppscbe1=1.405191609e-2 pscbe2=1.0e-12 pvag=0.0 delta=0.01 fprout=0.0 pdits=0.0 pditsl=0.0 pditsd=0.0 lambda=0.0 lc=5.0e-9 rdsw=65.968 rsw=0.0 rdw=0.0 rdswmin=0.0 rdwmin=0.0 rswmin=0.0 prwb=0.0 prwg=0.021507 wr=1.0 alpha0=3.668768674e-07 lalpha0=-6.738854536e-13 walpha0=-2.037363217e-11 palpha0=4.075523042e-17 alpha1=8.159867060e-01 lalpha1=6.803988720e-8 beta0=1.176738913e+01 lbeta0=4.186039959e-06 wbeta0=-4.702913425e-06 pbeta0=9.407665689e-12 agidl=0.0 bgidl=2300000000.0 cgidl=0.5 egidl=0.8 toxref=4.148e-9 dlcig=0.0 aigbacc=1.0 bigbacc=0.0 cigbacc=0.0 nigbacc=0.0 aigbinv=0.35 bigbinv=0.03 cigbinv=0.006 eigbinv=1.1 nigbinv=0.0 aigc=0.43 bigc=0.054 cigc=0.075 aigsd=0.43 bigsd=0.054 cigsd=0.075 nigc=0.0 poxedge=1.0 pigcd=1.0 ntox=1.0 vfbsdoff=0.0 dlc=-6.13e-10 dwc=2.252e-8 xpart=0.0 cgso=2.4892e-10 cgdo=2.4892e-10 cgbo=1.0e-13 cgdl=0.0 cgsl=0.0 clc=1.0e-7 cle=0.6 cf=1.4067e-12 ckappas=0.6 vfbcv=-1.0 acde=0.4 moin=6.9 noff=3.4037 voffcv=-0.17287 xrcrg1=12.0 xrcrg2=1.0 rbpb=50.0 rbpd=50.0 rbps=50.0 rbdb=50.0 rbsb=50.0 gbmin=1.0e-12 ef=0.84 noia=2.5e+42 noib=0.0 noic=0.0 em=41000000.0 ntnoi=1.0 lintnoi=-1.0e-7 af=1.0 kf=0.0 tnoia=15000000.0 tnoib=9900000.0 rnoia=0.94 rnoib=0.26 xl=0.0 xw=0.0 dmcg=0.0 dmdg=0.0 dmcgt=0.0 xgw=0.0 xgl=0.0 ngcon=1.0 jss=0.00275 jsws=6.0e-10 ijthsfwd=0.1 ijthsrev=0.1 bvs=11.7 xjbvs=1.0 pbs=0.729 cjs=0.00154845795 mjs=0.44 pbsws=0.2 cjsws=4.24559793e-11 mjsws=0.0009 pbswgs=0.95578 cjswgs=2.75331171e-10 mjswgs=0.8 tnom=30.0 kt1=-3.611760809e-01 lkt1=9.071521659e-08 wkt1=-9.754508640e-08 pkt1=8.241624584e-14 kt2=-8.754029721e-02 lkt2=6.127258173e-08 wkt2=1.452886480e-07 pkt2=-1.460031677e-13 at=1.573998468e+05 lat=-9.097830411e-02 wat=6.312948634e-02 pat=-8.452587242e-8 ute=-2.580913274e+00 lute=1.591876177e-06 wute=2.599229243e-07 pute=4.510058705e-13 ua1=-8.940665674e-10 lua1=2.875919040e-15 wua1=-2.350730481e-15 pua1=3.896760413e-21 ub1=-3.286796361e-19 lub1=-9.686505929e-25 wub1=4.604046824e-24 pub1=-5.786774035e-30 uc1=1.112783654e-11 luc1=5.766663646e-17 wuc1=4.056478749e-17 puc1=-1.298029296e-22 kt1l=0.0 prt=0.0 tvoff=0.0 njs=1.2928 tpb=0.0012287 tcj=0.000792 tpbsw=0.0 tcjsw=1.0e-5 tpbswg=0.0 tcjswg=0.0 xtis=2.0 tvfbsdoff=0.0 ll=0.0 wl=0.0 lln=1.0 wln=1.0 lw=0.0 ww=0.0 lwn=1.0 wwn=1.0 lwl=0.0 wwl=0.0 llc=0.0 wlc=0.0 lwc=0.0 wwc=0.0 lwlc=0.0 wwlc=0.0 saref=2.75e-6 sbref=2.74e-6 kvth0=9.8e-9 lkvth0=0.0 wkvth0=2.0e-7 pkvth0=0.0 llodvth=0.0 wlodvth=1.0 wlod=0.0 stk2=0.0 lodk2=1.0 lodeta0=1.0 ku0=-2.7e-8 lku0=0.0 wku0=0.0 pku0=0.0 tku0=0.0 llodku0=0.0 wlodku0=1.0 kvsat=0.2 steta0=0.0
Netlist line no. 3562:
Cannot compute substitute
Netlist line no. 3833:
Undefined parameter [l]
Netlist line no. 3833:
 Expression err: l*w*mult)))} toxm=4.148e-9 dtox=0.0 epsrox=3.9 xj=1.5e-7 ngate=1.0e+23 ndep=1.7e+17 nsd=1.0e+20 rsh=1.0 rshg=0.1 wint=4.4379e-8 lint=-1.955e-10 vth0={5.314468024e-01+mc_mm_switch*agauss(0,1.0,1)*(sky130_fd_pr__nfet_01v8__vth0_slope/sqrt(l*w*mult))} lvth0=1.754687010e-08 wvth0=-1.975606267e-08 pvth0=6.301870618e-14 k1=7.223078201e-01 lk1=-1.083474742e-07 wk1=-2.813131819e-07 pk1=7.146865138e-14 k2=-1.090870399e-01 lk2=4.750147922e-08 wk2=1.606120379e-07 pk2=-6.265970372e-14 k3=2.0 k3b=0.54 w0=0.0 dvt0=0.0 dvt1=0.53 dvt2=-0.032 dvt0w=-3.58 dvt1w=1670600.0 dvt2w=0.068 dsub=-1.744605664e+00 ldsub=1.118717944e-06 wdsub=1.291709880e-05 pdsub=-6.794147934e-12 minv=0.0 voffl=5.8197729e-9 lpe0=1.0325e-7 lpeb=-7.082e-8 vbm=-3.0 dvtp0=0.0 dvtp1=0.0 phin=0.0 cdsc=0.0 cdscb=0.0 cdscd=0.0054 cit=0.0 voff={-1.067098929e-01+mc_mm_switch*agauss(0,1.0,1)*(sky130_fd_pr__nfet_01v8__voff_slope/sqrt(l*w*mult))} lvoff=-7.097468902e-09 wvoff=-1.896442345e-09 pvoff=-4.533585650e-14 nfactor=2.325140036e+00 lnfactor=3.728254907e-07 wnfactor=9.808660430e-07 pnfactor=-1.200802613e-12 eta0=-4.753090511e-01 leta0=4.830319614e-07 weta0=-6.917910979e-08 peta0=3.461660393e-14 etab=2.469183582e-04 letab=-2.799279117e-10 wetab=-3.866275653e-09 petab=1.934649540e-15 u0=2.824166554e-02 lu0=-2.752296608e-09 wu0=-8.244901712e-09 pu0=7.643537934e-15 ua=-1.263048165e-09 lua=-2.391424758e-16 wua=-8.265299713e-17 pua=5.027183020e-22 ub=2.141316375e-18 lub=8.767931047e-26 wub=-2.550054554e-25 pub=-1.562843116e-31 uc=8.669044640e-11 luc=-4.805367398e-19 wuc=-3.297391807e-16 puc=1.546888282e-22 ud=0.0 up=0.0 lp=1.0 eu=1.67 vtl=0.0 xn=3.0 vsat=1.843273509e+05 lvsat=-4.369366421e-02 wvsat=-6.966653454e-01 pvsat=4.179548051e-7 a0=-3.783323516e-01 la0=9.399006038e-07 wa0=8.117649627e-06 pa0=-4.061998814e-12 ags=-1.228154353e+00 lags=1.240046135e-06 wags=1.144234117e-05 pags=-5.725644538e-12 a1=0.0 a2=0.42385546 b0=0.0 b1=0.0 keta=-8.234153101e-02 lketa=2.175634589e-08 wketa=-1.450046555e-07 pketa=1.140998492e-13 dwg=0.0 dwb=0.0 pclm=2.513287683e-01 lpclm=2.812664720e-07 wpclm=-3.235909697e-08 ppclm=-9.411483076e-13 pdiblc1=6.615210779e-01 lpdiblc1=3.186836721e-07 wpdiblc1=-1.710014583e-06 ppdiblc1=-1.762545306e-13 pdiblc2=-1.543026337e-03 lpdiblc2=3.006472873e-09 wpdiblc2=4.244205032e-08 ppdiblc2=-2.483399493e-14 pdiblcb=2.417082094e-02 lpdiblcb=-2.460463626e-08 wpdiblcb=3.216456720e-09 ppdiblcb=-1.609485994e-15 drout=1.049590990e+00 ldrout=-7.898997205e-07 wdrout=-7.108420320e-06 pdrout=7.111199712e-12 pscbe1=-1.483910635e+09 lpscbe1=7.292677202e+02 wpscbe1=9.986780585e+03 ppscbe1=-2.966100680e-3 pscbe2=1.0e-12 pvag=0.0 delta=0.01 fprout=0.0 pdits=0.0 pditsl=0.0 pditsd=0.0 lambda=0.0 lc=5.0e-9 rdsw=65.968 rsw=0.0 rdw=0.0 rdswmin=0.0 rdwmin=0.0 rswmin=0.0 prwb=0.0 prwg=0.021507 wr=1.0 alpha0=-2.128994381e-05 lalpha0=2.099140304e-11 walpha0=1.421457002e-10 palpha0=-1.218276470e-16 alpha1=9.180265880e-01 lalpha1=-3.403989240e-8 beta0=9.611046677e-01 lbeta0=1.499654967e-05 wbeta0=9.331006019e-05 pbeta0=-8.864363100e-11 agidl=0.0 bgidl=2300000000.0 cgidl=0.5 egidl=0.8 toxref=4.148e-9 dlcig=0.0 aigbacc=1.0 bigbacc=0.0 cigbacc=0.0 nigbacc=0.0 aigbinv=0.35 bigbinv=0.03 cigbinv=0.006 eigbinv=1.1 nigbinv=0.0 aigc=0.43 bigc=0.054 cigc=0.075 aigsd=0.43 bigsd=0.054 cigsd=0.075 nigc=0.0 poxedge=1.0 pigcd=1.0 ntox=1.0 vfbsdoff=0.0 dlc=-6.13e-10 dwc=2.252e-8 xpart=0.0 cgso=2.4892e-10 cgdo=2.4892e-10 cgbo=1.0e-13 cgdl=0.0 cgsl=0.0 clc=1.0e-7 cle=0.6 cf=1.4067e-12 ckappas=0.6 vfbcv=-1.0 acde=0.4 moin=6.9 noff=3.4037 voffcv=-0.17287 xrcrg1=12.0 xrcrg2=1.0 rbpb=50.0 rbpd=50.0 rbps=50.0 rbdb=50.0 rbsb=50.0 gbmin=1.0e-12 ef=0.84 noia=2.5e+42 noib=0.0 noic=0.0 em=41000000.0 ntnoi=1.0 lintnoi=-1.0e-7 af=1.0 kf=0.0 tnoia=15000000.0 tnoib=9900000.0 rnoia=0.94 rnoib=0.26 xl=0.0 xw=0.0 dmcg=0.0 dmdg=0.0 dmcgt=0.0 xgw=0.0 xgl=0.0 ngcon=1.0 jss=0.00275 jsws=6.0e-10 ijthsfwd=0.1 ijthsrev=0.1 bvs=11.7 xjbvs=1.0 pbs=0.729 cjs=0.00154845795 mjs=0.44 pbsws=0.2 cjsws=4.24559793e-11 mjsws=0.0009 pbswgs=0.95578 cjswgs=2.75331171e-10 mjswgs=0.8 tnom=30.0 kt1=-2.685631945e-01 lkt1=-1.933881430e-09 wkt1=-4.397662358e-10 pkt1=-1.472704250e-14 kt2=-1.712871672e-02 lkt2=-9.166529692e-09 wkt2=3.045405551e-09 pkt2=-3.704308085e-15 at=8.051371031e+04 lat=-1.406210511e-02 wat=-4.977434187e-02 pat=2.842210119e-8 ute=-6.616270746e-01 lute=-3.281604629e-07 wute=2.180573802e-06 pute=-1.470395982e-12 ua1=2.619122030e-09 lua1=-6.386432149e-16 wua1=4.613170050e-15 pua1=-3.069863003e-21 ub1=-1.241180067e-18 lub1=-5.579337394e-26 wub1=-3.422836674e-24 pub1=2.243247975e-30 uc1=1.536964264e-10 luc1=-8.495769773e-17 wuc1=-1.947979223e-16 puc1=1.056518070e-22 kt1l=0.0 prt=0.0 tvoff=0.0 njs=1.2928 tpb=0.0012287 tcj=0.000792 tpbsw=0.0 tcjsw=1.0e-5 tpbswg=0.0 tcjswg=0.0 xtis=2.0 tvfbsdoff=0.0 ll=0.0 wl=0.0 lln=1.0 wln=1.0 lw=0.0 ww=0.0 lwn=1.0 wwn=1.0 lwl=0.0 wwl=0.0 llc=0.0 wlc=0.0 lwc=0.0 wwc=0.0 lwlc=0.0 wwlc=0.0 saref=1.75e-6 sbref=1.74e-6 kvth0=9.8e-9 lkvth0=0.0 wkvth0=2.0e-7 pkvth0=0.0 llodvth=0.0 wlodvth=1.0 wlod=0.0 stk2=0.0 lodk2=1.0 lodeta0=1.0 ku0=-2.7e-8 lku0=0.0 wku0=0.0 pku0=0.0 tku0=0.0 llodku0=0.0 wlodku0=1.0 kvsat=0.2 steta0=0.0
Netlist line no. 3833:
Cannot compute substitute
Netlist line no. 4104:
Undefined parameter [l]
Netlist line no. 4104:
 Expression err: l*w*mult)))} toxm=4.148e-9 dtox=0.0 epsrox=3.9 xj=1.5e-7 ngate=1.0e+23 ndep=1.7e+17 nsd=1.0e+20 rsh=1.0 rshg=0.1 wint=4.4379e-8 lint=-1.955e-10 vth0={6.137551841e-01+mc_mm_switch*agauss(0,1.0,1)*(sky130_fd_pr__nfet_01v8__vth0_slope/sqrt(l*w*mult))} lvth0=-2.363950333e-08 wvth0=1.143094078e-07 pvth0=-4.066448670e-15 k1=2.578512384e-01 lk1=1.240624192e-07 wk1=-3.355262627e-07 pk1=9.859638911e-14 k2=6.454920377e-02 lk2=-3.938453436e-08 wk2=7.623328524e-08 pk2=-2.043733531e-14 k3=2.0 k3b=0.54 w0=0.0 dvt0=0.0 dvt1=0.53 dvt2=-0.032 dvt0w=-3.58 dvt1w=1670600.0 dvt2w=0.068 dsub=3.748036655e-01 ldsub=5.818459021e-08 wdsub=-9.812973617e-07 pdsub=1.604844224e-13 minv=0.0 voffl=5.8197729e-9 lpe0=1.0325e-7 lpeb=-7.082e-8 vbm=-3.0 dvtp0=0.0 dvtp1=0.0 phin=0.0 cdsc=0.0 cdscb=0.0 cdscd=0.0054 cit=0.0 voff={-1.014386931e-01+mc_mm_switch*agauss(0,1.0,1)*(sky130_fd_pr__nfet_01v8__voff_slope/sqrt(l*w*mult))} lvoff=-9.735129863e-09 wvoff=-1.712052201e-07 pvoff=3.938473212e-14 nfactor=3.036485104e+00 lnfactor=1.687482043e-08 wnfactor=-3.027003159e-06 pnfactor=8.046990646e-13 eta0=0.49 etab=-2.463432642e-04 letab=-3.310423520e-11 wetab=3.539106064e-09 petab=-1.770936822e-15 u0=2.860307686e-02 lu0=-2.933143578e-09 wu0=2.067040832e-08 pu0=-6.825422967e-15 ua=-1.323135195e-09 lua=-2.090754666e-16 wua=1.582794363e-15 pua=-3.306565682e-22 ub=1.932430063e-18 lub=1.922041409e-25 wub=3.095493923e-25 pub=-4.387824764e-31 uc=-3.956346875e-12 luc=4.487830279e-17 wuc=5.865119828e-16 puc=-3.037950078e-22 ud=0.0 up=0.0 lp=1.0 eu=1.67 vtl=0.0 xn=3.0 vsat=2.168781891e+04 lvsat=3.768969386e-02 wvsat=3.721284325e-01 pvsat=-1.168599822e-7 a0=1.5 ags=2.482394068e+00 lags=-6.166789003e-07 wags=-4.249483560e-12 pags=2.126403329e-18 a1=0.0 a2=0.42385546 b0=0.0 b1=0.0 keta=-2.387472488e-02 lketa=-7.499917695e-09 wketa=6.046346295e-08 pketa=1.128545188e-14 dwg=0.0 dwb=0.0 pclm=1.248389747e+00 lpclm=-2.176538680e-07 wpclm=-4.056794394e-06 ppclm=1.072642895e-12 pdiblc1=3.418493377e+00 lpdiblc1=-1.060880454e-06 wpdiblc1=-1.061063070e-05 ppdiblc1=4.277533667e-12 pdiblc2=6.374537686e-03 lpdiblc2=-9.554049064e-10 wpdiblc2=-1.425354643e-08 ppdiblc2=3.535971429e-15 pdiblcb=6.672051182e-01 lpdiblcb=-3.463732113e-07 wpdiblcb=-3.399586849e-06 ppdiblcb=1.701122663e-12 drout=-2.060339341e+00 ldrout=7.662814279e-07 wdrout=1.421684064e-05 pdrout=-3.559768945e-12 pscbe1=-8.543224250e+08 lpscbe1=4.142274463e+02 wpscbe1=8.124777775e+03 ppscbe1=-2.034371232e-3 pscbe2=1.0e-12 pvag=0.0 delta=0.01 fprout=0.0 pdits=0.0 pditsl=0.0 pditsd=0.0 lambda=0.0 lc=5.0e-9 rdsw=65.968 rsw=0.0 rdw=0.0 rdswmin=0.0 rdwmin=0.0 rswmin=0.0 prwb=0.0 prwg=0.021507 wr=1.0 alpha0=4.328289667e-05 lalpha0=-1.132026518e-11 walpha0=-2.344130294e-10 palpha0=6.659895226e-17 alpha1=0.85 beta0=4.343426743e+01 lbeta0=-6.256638715e-06 wbeta0=-1.725168945e-04 pbeta0=4.437378467e-11 agidl=0.0 bgidl=2300000000.0 cgidl=0.5 egidl=0.8 toxref=4.148e-9 dlcig=0.0 aigbacc=1.0 bigbacc=0.0 cigbacc=0.0 nigbacc=0.0 aigbinv=0.35 bigbinv=0.03 cigbinv=0.006 eigbinv=1.1 nigbinv=0.0 aigc=0.43 bigc=0.054 cigc=0.075 aigsd=0.43 bigsd=0.054 cigsd=0.075 nigc=0.0 poxedge=1.0 pigcd=1.0 ntox=1.0 vfbsdoff=0.0 dlc=-6.13e-10 dwc=2.252e-8 xpart=0.0 cgso=2.4892e-10 cgdo=2.4892e-10 cgbo=1.0e-13 cgdl=0.0 cgsl=0.0 clc=1.0e-7 cle=0.6 cf=1.4067e-12 ckappas=0.6 vfbcv=-1.0 acde=0.4 moin=6.9 noff=3.4037 voffcv=-0.17287 xrcrg1=12.0 xrcrg2=1.0 rbpb=50.0 rbpd=50.0 rbps=50.0 rbdb=50.0 rbsb=50.0 gbmin=1.0e-12 ef=0.84 noia=2.5e+42 noib=0.0 noic=0.0 em=41000000.0 ntnoi=1.0 lintnoi=-1.0e-7 af=1.0 kf=0.0 tnoia=15000000.0 tnoib=9900000.0 rnoia=0.94 rnoib=0.26 xl=0.0 xw=0.0 dmcg=0.0 dmdg=0.0 dmcgt=0.0 xgw=0.0 xgl=0.0 ngcon=1.0 jss=0.00275 jsws=6.0e-10 ijthsfwd=0.1 ijthsrev=0.1 bvs=11.7 xjbvs=1.0 pbs=0.729 cjs=0.00154845795 mjs=0.44 pbsws=0.2 cjsws=4.24559793e-11 mjsws=0.0009 pbswgs=0.95578 cjswgs=2.75331171e-10 mjswgs=0.8 tnom=30.0 kt1=-2.086487723e-01 lkt1=-3.191451909e-08 wkt1=-3.674421612e-07 pkt1=1.689176529e-13 kt2=2.302314085e-03 lkt2=-1.888964263e-08 wkt2=-2.384443201e-07 pkt2=1.171349772e-13 at=8.204118696e+04 lat=-1.482644068e-02 wat=-7.371450278e-03 pat=7.204075861e-9 ute=-1.208490218e+00 lute=-5.451506748e-08 wute=-5.374830147e-06 pute=2.310260156e-12 ua1=1.780566526e-09 lua1=-2.190375874e-16 wua1=-6.885565380e-15 pua1=2.684000718e-21 ub1=-2.179036963e-18 lub1=4.135017759e-25 wub1=3.781134618e-24 pub1=-1.361554424e-30 uc1=-1.484104747e-10 luc1=6.621387661e-17 wuc1=2.124527689e-16 puc1=-9.813277364e-23 kt1l=0.0 prt=0.0 tvoff=0.0 njs=1.2928 tpb=0.0012287 tcj=0.000792 tpbsw=0.0 tcjsw=1.0e-5 tpbswg=0.0 tcjswg=0.0 xtis=2.0 tvfbsdoff=0.0 ll=0.0 wl=0.0 lln=1.0 wln=1.0 lw=0.0 ww=0.0 lwn=1.0 wwn=1.0 lwl=0.0 wwl=0.0 llc=0.0 wlc=0.0 lwc=0.0 wwc=0.0 lwlc=0.0 wwlc=0.0 saref=1.25e-6 sbref=1.24e-6 kvth0=9.8e-9 lkvth0=0.0 wkvth0=2.0e-7 pkvth0=0.0 llodvth=0.0 wlodvth=1.0 wlod=0.0 stk2=0.0 lodk2=1.0 lodeta0=1.0 ku0=-2.7e-8 lku0=0.0 wku0=0.0 pku0=0.0 tku0=0.0 llodku0=0.0 wlodku0=1.0 kvsat=0.2 steta0=0.0
Netlist line no. 4104:
Cannot compute substitute
Netlist line no. 4375:
Undefined parameter [l]
Netlist line no. 4375:
[...]
Netlist line no. 28946:
Cannot compute substitute
Netlist line no. 29224:
Undefined parameter [l]
Netlist line no. 29224:
 Expression err: l*w*mult)))} dtox=0.0 ndep=1.7000000000000000e+17 nsd=1.0e+20 rshg=0.1 rsh=1.0 vth0={-0.839540480836513+mc_mm_switch*agauss(0,1.0,1)*(sky130_fd_pr__pfet_01v8__vth0_slope1/sqrt(l*w*mult))} lvth0=-4.40995565388301e-08 wvth0=-1.0249013656543e-07 pvth0=3.09769263459452e-14 k1=0.636553775766274 lk1=-1.70187308111162e-08 wk1=-7.48044686188999e-08 pk1=2.26091270087822e-14 k2=-0.0691573633633802 lk2=1.33077684671191e-08 wk2=3.49629063671156e-08 pk2=-1.05672937091161e-14 k3=-15.845 dvt0=4.4955 dvt1=0.294 dvt2=0.015 dvt0w=-4.9772 dvt1w=1147200.0 dvt2w=-0.00896 w0=0.0 k3b=2.0 phin=0.0 lpe0=0.0 lpeb=0.0 vbm=-3.0 dvtp0=0.0 dvtp1=0.0 vsat=-4003.15547101782 lvsat=0.0279876853189968 wvsat=0.0249597335657953 pvsat=-7.54390475212666e-9 ua=-3.39394382705758e-09 lua=5.74017586506866e-16 wua=6.15418215956633e-16 pua=-1.86005847845381e-22 ub=2.92414273629912e-18 lub=-4.61222859195454e-25 wub=-6.63414285359095e-25 pub=2.00512323849789e-31 uc=2.66669143135392e-11 luc=-8.04313415428898e-18 wuc=-2.72853904437847e-17 puc=8.24681826390081e-24 rdsw=547.88 prwb=-0.32348 prwg=0.1376 wr=1.0 u0=0.000880803098414026 lu0=1.12220314308605e-09 wu0=1.45365752506674e-09 pu0=-4.39357811348745e-16 a0=0.70937693429585 la0=3.1050349977619e-08 wa0=3.66759760207981e-07 pa0=-1.10850570204541e-13 keta=0.137701308077867 lketa=-4.46325120524596e-08 wketa=-7.15740969118774e-08 pketa=2.16327697729366e-14 a1=0.0 a2=1.13401084291128 la2=-1.84455149921854e-7 ags=-1.15794989857545 lags=4.77469424580219e-07 wags=1.22058180359273e-06 pags=-3.68912306063278e-13 b0=-5.45536251221767e-07 lb0=1.64884513178021e-13 wb0=1.91571134419824e-13 pb0=-5.7901034380451e-20 b1=-1.41428581103565e-08 lb1=4.2745798638485e-15 wb1=6.74828566981099e-15 pb1=-2.03962210570069e-21 eu=1.67 rdswmin=0.0 rdw=0.0 rdwmin=0.0 rsw=0.0 rswmin=0.0 voff={-0.186094070486154+mc_mm_switch*agauss(0,1.0,1)*(sky130_fd_pr__pfet_01v8__voff_slope1/sqrt(l*w*mult))} lvoff=-4.02162707648335e-09 wvoff=-8.46337035734288e-09 pvoff=2.55799444691443e-15 nfactor={1.18995440327013+mc_mm_switch*agauss(0,1.0,1)*(sky130_fd_pr__pfet_01v8__nfactor_slope1/sqrt(l*w*mult))} lnfactor=3.19327465932427e-07 wnfactor=1.10576453711995e-07 pnfactor=-3.34209590992747e-14 up=0.0 ud=0.0 lp=1.0 tvfbsdoff=0.0 tvoff=0.0 cit=1.0e-5 cdsc=0.00013 cdscb=0.00078 cdscd=0.0 eta0=0.49 etab=4.261986923225e-05 letab=-3.17717446363629e-11 wetab=9.38279410478891e-12 petab=-2.83588383861372e-18 dsub=-0.341956085992193 ldsub=2.93162524949008e-07 wdsub=1.17790846567992e-07 pdsub=-3.56014588392495e-14 voffl=0.0 minv=0.0 pclm=0.468101347119457 lpclm=5.10947633496139e-08 wpclm=7.59160519896122e-08 ppclm=-2.29450953014963e-14 pdiblc1=-1.07369926187291 lpdiblc1=4.64139333551583e-07 wpdiblc1=4.65126151258122e-07 ppdiblc1=-1.40581123334709e-13 pdiblc2=-0.0167899269371855 lpdiblc2=8.41969234173775e-09 wpdiblc2=2.6863202540495e-09 ppdiblc2=-8.11921492544683e-16 pdiblcb=-1.449627569136 lpdiblcb=3.70135110378372e-07 wpdiblcb=6.0049882270649e-07 ppdiblcb=-1.81496565671278e-13 drout=1.18204717077318 ldrout=-2.26793348715629e-07 wdrout=6.93407099807406e-08 pdrout=-2.0957744206709e-14 pscbe1=800086006.26808 lpscbe1=-0.0474963595033842 pscbe2=-5.96894384119651e-08 lpscbe2=2.08242737980193e-14 wpscbe2=2.48923248707018e-14 ppscbe2=-7.52353094589551e-21 pvag=0.0 delta=0.01 alpha0=1.0e-10 alpha1=1.0e-10 beta0=7.28154809139276 lbeta0=6.07996494597877e-07 wbeta0=7.32719355734711e-07 pbeta0=-2.21459296235328e-13 fprout=0.0 pdits=0.0 pditsl=0.0 pditsd=0.0 agidl=-1.44625077053725e-09 lagidl=4.67343471639489e-16 wagidl=1.00565717988303e-15 pagidl=-3.03952843019386e-22 bgidl=664683394.7904 lbgidl=185.176248010765 cgidl=300.0 egidl=0.1 aigbacc=0.43 bigbacc=0.054 cigbacc=0.075 nigbacc=1.0 aigbinv=0.35 bigbinv=0.03 cigbinv=0.006 eigbinv=1.1 nigbinv=3.0 aigc=0.43 bigc=0.054 cigc=0.075 nigc=1.0 aigsd=0.43 bigsd=0.054 cigsd=0.075 dlcig=0.0 poxedge=1.0 pigcd=1.0 ntox=1.0 toxref=4.23e-9 kt1=-0.50617204476 lkt1=-1.78261568560336e-9 kt2=-0.0114863736473116 lkt2=-1.84538282571557e-09 wkt2=-6.58266809450854e-08 pkt2=1.98956535288855e-14 at=144946.508737821 lat=-0.0236929825324454 wat=-0.0391495207463496 pat=1.1832668598939e-8 ute=0.335200998754125 lute=-1.57308716076443e-07 wute=-1.54208097671027e-07 pute=4.66083180643841e-14 ua1=-2.93892954124587e-10 lua1=2.10491985353478e-16 wua1=2.43892596842241e-16 pua1=-7.37148301473895e-23 ub1=6.11804718079272e-19 lub1=-5.22290164064338e-26 wub1=-4.3596214528491e-26 pub1=1.31766506677348e-32 uc1=5.303025600552e-11 luc1=-1.58550379072564e-17 kt1l=0.0 prt=0.0 xrcrg1=12.0 xrcrg2=1.0 rbpb=50.0 rbpd=50.0 rbps=50.0 rbdb=50.0 rbsb=50.0 gbmin=1.0e-12 noia=1.5e+42 noib=0.0 noic=0.0 em=41000000.0 af=1.0 ef=1.0 kf=0.0 ntnoi=1.0 dmcg=0.0 dmcgt=0.0 dmdg=0.0 xgw=0.0 xgl=0.0 ngcon=1.0 diomod=1.0 njs=1.3632 jss=2.1483e-5 jsws=8.04e-10 xtis=5.2 bvs=12.69 xjbvs=1.0 ijthsrev=0.1 ijthsfwd=0.1 tpb=0.0020386 tpbsw=0.001246 tpbswg=0.0 tcj=0.0012407 tcjsw=0.00037357 tcjswg=2.0e-12 cgdo=6.07365e-11 cgso=6.07365e-11 cgbo=0.0 capmod=2.0 xpart=0.0 cgsl=1.10485215e-11 cgdl=1.10485215e-11 cf=1.2e-11 clc=1.0e-7 cle=0.6 dlc=-1.51275e-8 dwc=2.252e-8 vfbcv=-0.14469 acde=0.8 moin=18.13 noff=3.9 voffcv=-0.10701 ngate=1.0e+23 lwc=0.0 llc=0.0 lwlc=0.0 wlc=0.0 wwc=0.0 wwlc=0.0 ckappas=0.6 cjs=0.000787089375 mjs=0.34629 pbs=0.6587 cjsws=1.05469e-10 mjsws=0.29781 pbsws=0.7418 cjswgs=2.5506845e-10 mjswgs=0.9274 pbswgs=1.4338 saref=1.24e-6 sbref=1.24e-6 wlod={0+sky130_fd_pr__pfet_01v8__wlod_diff} kvth0={0+sky130_fd_pr__pfet_01v8__kvth0_diff} lkvth0={0+sky130_fd_pr__pfet_01v8__lkvth0_diff} wkvth0={0+sky130_fd_pr__pfet_01v8__wkvth0_diff} pkvth0=0.0 llodvth=0.0 wlodvth=1.0 stk2=0.0 lodk2=1.0 lodeta0=1.0 ku0={0+sky130_fd_pr__pfet_01v8__ku0_diff} lku0={0+sky130_fd_pr__pfet_01v8__lku0_diff} wku0={0+sky130_fd_pr__pfet_01v8__wku0_diff} pku0=0.0 llodku0=0.0 wlodku0=1.0 kvsat={0+sky130_fd_pr__pfet_01v8__kvsat_diff} steta0=0.0 tku0=0.0
Netlist line no. 29224:
Cannot compute substitute
Netlist line no. 29502:
Undefined parameter [l]
Netlist line no. 29502:
 Expression err: l*w*mult)))} dtox=0.0 ndep=1.7000000000000000e+17 nsd=1.0e+20 rshg=0.1 rsh=1.0 vth0={-0.900132306847143+mc_mm_switch*agauss(0,1.0,1)*(sky130_fd_pr__pfet_01v8__vth0_slope1/sqrt(l*w*mult))} lvth0=-2.57861012698991e-8 k1=-0.753854237424425 lk1=4.03222358319681e-7 k2=0.540335591016728 lk2=-1.70907210543588e-07 pk2=-1.89326617253043e-29 k3=-15.845 dvt0=4.4955 dvt1=0.294 dvt2=0.015 dvt0w=-4.9772 dvt1w=1147200.0 dvt2w=-0.00896 w0=0.0 k3b=2.0 phin=0.0 lpe0=0.0 lpeb=0.0 vbm=-3.0 dvtp0=0.0 dvtp1=0.0 vsat=-13507.8828004287 lvsat=0.0308604226212199 ua=1.63077910708429e-09 lua=-9.44669747276976e-16 ub=-9.19993558705713e-19 lub=7.00640427015691e-25 uc=-1.06695290525572e-14 luc=1.99788190474911e-20 rdsw=547.88 prwb=-0.32348 prwg=0.1376 wr=1.0 u0=0.0121906473150571 lu0=-2.29611810248482e-9 a0=-0.80891296242857 la0=4.89942843233298e-7 keta=-0.243357161001197 lketa=7.0539742817404e-08 wketa=-1.98523347012727e-23 pketa=4.73316543132607e-30 a1=0.0 a2=0.0430362205630015 la2=1.45284292860557e-7 ags=-2.32595109449885 lags=8.30489610039697e-07 pags=1.0097419586829e-28 b0=2.34260196342857e-07 lb0=-7.08035045232542e-14 b1=-1.14807668171428e-09 lb1=3.46998140511371e-16 eu=1.67 rdswmin=0.0 rdw=0.0 rdwmin=0.0 rsw=0.0 rswmin=0.0 voff={-0.189659108206143+mc_mm_switch*agauss(0,1.0,1)*(sky130_fd_pr__pfet_01v8__voff_slope/sqrt(l*w*mult))} lvoff=-2.94411938088082e-9 nfactor={5.23503302213285+mc_mm_switch*agauss(0,1.0,1)*(sky130_fd_pr__pfet_01v8__nfactor_slope1/sqrt(l*w*mult))} lnfactor=-9.03269231068501e-7 up=0.0 ud=0.0 lp=1.0 tvfbsdoff=0.0 tvoff=0.0 cit=1.0e-5 cdsc=0.00013 cdscb=0.00078 cdscd=0.0 eta0=1.70540283255443 leta0=-3.67346998319748e-7 etab=0.327817537026143 letab=-9.90994460308925e-08 wetab=1.96455395481344e-23 petab=9.83610941197449e-30 dsub=1.84528256562071 ldsub=-3.67915046830431e-07 pdsub=1.0097419586829e-28 voffl=0.0 minv=0.0 pclm=0.674204565135856 lpclm=-1.11984915733169e-8 pdiblc1=1.43337925002629 lpdiblc1=-2.93607597120365e-7 pdiblc2=0.0365667326803343 lpdiblc2=-7.70698453104027e-9 pdiblcb=-0.971476165276739 lpdiblcb=2.25617195621737e-7 drout=-1.453869509709 ldrout=5.69894016543347e-7 pscbe1=799692834.756857 lpscbe1=0.0713369775635329 pscbe2=3.64473694867385e-08 lpscbe2=-8.23240343170863e-15 pvag=0.0 delta=0.01 alpha0=1.0e-10 alpha1=1.0e-10 beta0=12.33537434018 lbeta0=-9.19487112314327e-7 fprout=0.0 pdits=0.0 pditsl=0.0 pditsd=0.0 agidl=-1.48814030467986e-08 lagidl=4.52802420107354e-15 wagidl=1.08468374467889e-30 pagidl=-2.82118644197349e-37 bgidl=2197559304.32 lbgidl=-278.124765513191 cgidl=300.0 egidl=0.1 aigbacc=0.43 bigbacc=0.054 cigbacc=0.075 nigbacc=1.0 aigbinv=0.35 bigbinv=0.03 cigbinv=0.006 eigbinv=1.1 nigbinv=3.0 aigc=0.43 bigc=0.054 cigc=0.075 nigc=1.0 aigsd=0.43 bigsd=0.054 cigsd=0.075 dlcig=0.0 poxedge=1.0 pigcd=1.0 ntox=1.0 toxref=4.23e-9 kt1=-0.145358303 lkt1=-1.10836043436371e-7 kt2=0.322172873485714 lkt2=-1.02691554656943e-07 wkt2=-2.64697796016969e-23 pkt2=6.31088724176809e-30 at=-28431.3870000001 lat=0.028709272809041 ute=-0.361641969714286 lute=5.33071932423549e-8 ua1=1.18888162042857e-09 lua1=-2.37666250383193e-16 ub1=6.59166363999999e-19 lub1=-6.65437423544519e-26 uc1=-7.82166285911428e-11 luc1=2.38134142338928e-17 wuc1=3.08148791101958e-33 puc1=1.0101904577379e-39 kt1l=0.0 prt=0.0 xrcrg1=12.0 xrcrg2=1.0 rbpb=50.0 rbpd=50.0 rbps=50.0 rbdb=50.0 rbsb=50.0 gbmin=1.0e-12 noia=1.5e+42 noib=0.0 noic=0.0 em=41000000.0 af=1.0 ef=1.0 kf=0.0 ntnoi=1.0 dmcg=0.0 dmcgt=0.0 dmdg=0.0 xgw=0.0 xgl=0.0 ngcon=1.0 diomod=1.0 njs=1.3632 jss=2.1483e-5 jsws=8.04e-10 xtis=5.2 bvs=12.69 xjbvs=1.0 ijthsrev=0.1 ijthsfwd=0.1 tpb=0.0020386 tpbsw=0.001246 tpbswg=0.0 tcj=0.0012407 tcjsw=0.00037357 tcjswg=2.0e-12 cgdo=6.07365e-11 cgso=6.07365e-11 cgbo=0.0 capmod=2.0 xpart=0.0 cgsl=1.10485215e-11 cgdl=1.10485215e-11 cf=1.2e-11 clc=1.0e-7 cle=0.6 dlc=-1.51275e-8 dwc=2.252e-8 vfbcv=-0.14469 acde=0.8 moin=18.13 noff=3.9 voffcv=-0.10701 ngate=1.0e+23 lwc=0.0 llc=0.0 lwlc=0.0 wlc=0.0 wwc=0.0 wwlc=0.0 ckappas=0.6 cjs=0.000787089375 mjs=0.34629 pbs=0.6587 cjsws=1.05469e-10 mjsws=0.29781 pbsws=0.7418 cjswgs=2.5506845e-10 mjswgs=0.9274 pbswgs=1.4338 saref=1.1e-6 sbref=1.1e-6 wlod={0+sky130_fd_pr__pfet_01v8__wlod_diff} kvth0={0+sky130_fd_pr__pfet_01v8__kvth0_diff} lkvth0={0+sky130_fd_pr__pfet_01v8__lkvth0_diff} wkvth0={0+sky130_fd_pr__pfet_01v8__wkvth0_diff} pkvth0=0.0 llodvth=0.0 wlodvth=1.0 stk2=0.0 lodk2=1.0 lodeta0=1.0 ku0={0+sky130_fd_pr__pfet_01v8__ku0_diff} lku0={0+sky130_fd_pr__pfet_01v8__lku0_diff} wku0={0+sky130_fd_pr__pfet_01v8__wku0_diff} pku0=0.0 llodku0=0.0 wlodku0=1.0 kvsat={0+sky130_fd_pr__pfet_01v8__kvsat_diff} steta0=0.0 tku0=0.0
Netlist line no. 29502:
Cannot compute substitute
Netlist line no. 29780:
Undefined parameter [l]
Netlist line no. 29780:
 Expression err: l*w*mult)))} dtox=0.0 ndep=1.7000000000000000e+17 nsd=1.0e+20 rshg=0.1 rsh=1.0 vth0={-1.52479736550476+mc_mm_switch*agauss(0,1.0,1)*(sky130_fd_pr__pfet_01v8__vth0_slope1/sqrt(l*w*mult))} lvth0=1.19287985947923e-07 wvth0=2.2993518779427e-07 pvth0=-5.34008378189046e-14 k1=-4.31069232248112 lk1=1.2292731057075e-06 wk1=1.79696454492033e-06 pk1=-4.17332436805932e-13 k2=1.39494703504205 lk2=-3.69384736138362e-07 wk2=-4.91352075046678e-07 pk2=1.14113079965066e-13 k3=-15.845 dvt0=4.4955 dvt1=0.294 dvt2=0.015 dvt0w=-4.9772 dvt1w=1147200.0 dvt2w=-0.00896 w0=0.0 k3b=2.0 phin=0.0 lpe0=0.0 lpeb=0.0 vbm=-3.0 dvtp0=0.0 dvtp1=0.0 vsat=886155.684141414 lvsat=-0.178080143156054 wvsat=-0.290654717629433 pvsat=6.75025235864124e-8 ua=-1.05119578754181e-09 lua=-3.21799851824331e-16 wua=-4.59962923276053e-16 pua=1.068231691904e-22 ub=1.71549560447035e-18 lub=8.85665172921955e-26 wub=-8.36841847318501e-26 pub=1.94350661146787e-32 uc=7.84407846329833e-13 luc=-1.64672335843441e-19 wuc=-6.20710651090046e-19 puc=1.44155703741106e-25 rdsw=547.88 prwb=-0.32348 prwg=0.1376 wr=1.0 u0=0.0121002679748236 lu0=-2.27512813337096e-09 wu0=-3.61045938967053e-09 pu0=8.38503920035252e-16 a0=9.92751868810672 la0=-2.00351825258197e-06 wa0=-2.06443927392469e-06 pa0=4.79451570294092e-13 keta=1.33334916229022 lketa=-2.95639263822766e-07 wketa=-3.42004316402275e-07 pketa=7.94281084542135e-14 a1=0.0 a2=-5.03122926223924 la2=1.323746931383e-06 wa2=2.36058216105529e-06 pa2=-5.48228682829964e-13 ags=-14.6426762795833 lags=3.69096281719928e-06 wags=5.72696086123568e-06 pags=-1.33004657129596e-12 b0=1.06228498170058e-06 lb0=-2.63106464749089e-13 wb0=-4.21101141342315e-13 pb0=9.77977923687632e-20 b1=-3.1811861423236e-08 lb1=7.46844750023661e-15 wb1=1.53390919707336e-14 pb1=-3.56239673655909e-21 eu=1.67 rdswmin=0.0 rdw=0.0 rdwmin=0.0 rsw=0.0 rswmin=0.0 voff={-0.418287926502107+mc_mm_switch*agauss(0,1.0,1)*(sky130_fd_pr__pfet_01v8__voff_slope1/sqrt(l*w*mult))} lvoff=5.0153323266629e-08 wvoff=1.69447210440644e-07 pvoff=-3.93529284943665e-14 nfactor={-6.80141393539786+mc_mm_switch*agauss(0,1.0,1)*(sky130_fd_pr__pfet_01v8__nfactor_slope1/sqrt(l*w*mult))} lnfactor=1.89211131968931e-06 wnfactor=2.23564974689098e-06 pnfactor=-5.19214004167201e-13 up=0.0 ud=0.0 lp=1.0 tvfbsdoff=0.0 tvoff=0.0 cit=1.0e-5 cdsc=0.00013 cdscb=0.00078 cdscd=0.0 eta0=-2.17198988115483 leta0=5.33150317690232e-07 weta0=9.4065070080067e-07 peta0=-2.1845954070605e-13 etab=-1.06884986240379 letab=2.25266780814914e-07 wetab=2.22467652335536e-07 petab=-5.16665549813619e-14 dsub=0.268524401900667 ldsub=-1.72400061359654e-9 voffl=0.0 minv=0.0 pclm=3.85946465030683 lpclm=-7.50952849533679e-07 wpclm=-1.55754697604184e-06 ppclm=3.61729382356884e-13 pdiblc1=2.72941641280929 lpdiblc1=-5.94603155916578e-07 wpdiblc1=-1.28431449803465e-06 ppdiblc1=2.9827305196706e-13 pdiblc2=0.0624245614186734 lpdiblc2=-1.37122842507184e-08 wpdiblc2=-2.97872979098934e-08 ppdiblc2=6.91789142848738e-15 pdiblcb=1.90433904108104 lpdiblcb=-4.42270755348411e-07 wpdiblcb=-6.85893046850613e-07 ppdiblcb=1.59293858879727e-13 drout=-0.687671721436047 ldrout=3.91949943601472e-07 wdrout=8.27553541483953e-07 pdrout=-1.92193517134858e-13 pscbe1=744593680.431477 lpscbe1=12.8677298755529 wpscbe1=27.1686106943271 ppscbe1=-6.30971965348299e-6 pscbe2=-8.00542949772542e-08 lpscbe2=1.88242926284024e-14 wpscbe2=1.19714383116185e-14 ppscbe2=-2.78028274780521e-21 pvag=0.0 delta=0.01 alpha0=1.0e-10 alpha1=1.0e-10 beta0=30.6038043877617 lbeta0=-5.16220211185483e-06 wbeta0=-8.86306753669177e-06 pbeta0=2.05838539392391e-12 fprout=0.0 pdits=0.0 pditsl=0.0 pditsd=0.0 agidl=3.22217720971693e-08 lagidl=-6.41135850388697e-15 wagidl=-3.28264356840471e-15 pagidl=7.62370990257015e-22 bgidl=1000000000.0 cgidl=300.0 egidl=0.1 aigbacc=0.43 bigbacc=0.054 cigbacc=0.075 nigbacc=1.0 aigbinv=0.35 bigbinv=0.03 cigbinv=0.006 eigbinv=1.1 nigbinv=3.0 aigc=0.43 bigc=0.054 cigc=0.075 nigc=1.0 aigsd=0.43 bigsd=0.054 cigsd=0.075 dlcig=0.0 poxedge=1.0 pigcd=1.0 ntox=1.0 toxref=4.23e-9 kt1=-0.119882863924222 lkt1=-1.16752535833647e-07 wkt1=-1.81155225962607e-07 pkt1=4.20720331432335e-14 kt2=-0.12 at=447224.86482124 lat=-0.0817585620826792 wat=-0.0518633575593503 pat=1.20449017496562e-8 ute=-4.05204580269321 lute=9.10377650624879e-07 wute=1.48543620034386e-06 pute=-3.4498215947646e-13 ua1=-1.274186416869e-10 lua1=6.80352713912908e-17 wua1=1.91051414330822e-16 pua1=-4.43703536184331e-23 ub1=3.7264e-19 uc1=2.72225892665131e-10 luc1=-5.7574408230228e-17 wuc1=-1.22566125567821e-16 puc1=2.84651247002475e-23 kt1l=0.0 prt=0.0 xrcrg1=12.0 xrcrg2=1.0 rbpb=50.0 rbpd=50.0 rbps=50.0 rbdb=50.0 rbsb=50.0 gbmin=1.0e-12 noia=1.5e+42 noib=0.0 noic=0.0 em=41000000.0 af=1.0 ef=1.0 kf=0.0 ntnoi=1.0 dmcg=0.0 dmcgt=0.0 dmdg=0.0 xgw=0.0 xgl=0.0 ngcon=1.0 diomod=1.0 njs=1.3632 jss=2.1483e-5 jsws=8.04e-10 xtis=5.2 bvs=12.69 xjbvs=1.0 ijthsrev=0.1 ijthsfwd=0.1 tpb=0.0020386 tpbsw=0.001246 tpbswg=0.0 tcj=0.0012407 tcjsw=0.00037357 tcjswg=2.0e-12 cgdo=6.07365e-11 cgso=6.07365e-11 cgbo=0.0 capmod=2.0 xpart=0.0 cgsl=1.10485215e-11 cgdl=1.10485215e-11 cf=1.2e-11 clc=1.0e-7 cle=0.6 dlc=-1.51275e-8 dwc=2.252e-8 vfbcv=-0.14469 acde=0.8 moin=18.13 noff=3.9 voffcv=-0.10701 ngate=1.0e+23 lwc=0.0 llc=0.0 lwlc=0.0 wlc=0.0 wwc=0.0 wwlc=0.0 ckappas=0.6 cjs=0.000787089375 mjs=0.34629 pbs=0.6587 cjsws=1.05469e-10 mjsws=0.29781 pbsws=0.7418 cjswgs=2.5506845e-10 mjswgs=0.9274 pbswgs=1.4338 saref=1.04e-6 sbref=1.04e-6 wlod={0+sky130_fd_pr__pfet_01v8__wlod_diff} kvth0={0+sky130_fd_pr__pfet_01v8__kvth0_diff} lkvth0={0+sky130_fd_pr__pfet_01v8__lkvth0_diff} wkvth0={0+sky130_fd_pr__pfet_01v8__wkvth0_diff} pkvth0=0.0 llodvth=0.0 wlodvth=1.0 stk2=0.0 lodk2=1.0 lodeta0=1.0 ku0={0+sky130_fd_pr__pfet_01v8__ku0_diff} lku0={0+sky130_fd_pr__pfet_01v8__lku0_diff} wku0={0+sky130_fd_pr__pfet_01v8__wku0_diff} pku0=0.0 llodku0=0.0 wlodku0=1.0 kvsat={0+sky130_fd_pr__pfet_01v8__kvsat_diff} steta0=0.0 tku0=0.0
Netlist line no. 29780:
Cannot compute substitute

ERROR: fatal error in ngspice, exit(1)
