
Note: No compatibility mode selected!


Circuit: * spicemodels/option-b-encoder.spice

Error on line 12 or its substitute:
  m.xcomp.m1 comp_out shareddrivep xcomp.out_int vdd xcomp.sky130_fd_pr__pfet_01v8__model.0 xcomp.w= xcomp.  1.200000000000000e-05   l=    1.800000000000000e-07   
could not find a valid modelname
    Simulation interrupted due to error!

