
Note: No compatibility mode selected!


Circuit: * spicemodels/option-b-encoder.spice

Doing analysis at TEMP = 27.000000 and TNOM = 27.000000

Using SPARSE 1.3 as Direct Linear Solver
Warning: singular matrix:  check node shareddrivep

Note: Starting dynamic gmin stepping
Warning: singular matrix:  check node shareddrivep

Warning: Dynamic gmin stepping failed
Note: Starting true gmin stepping
Warning: singular matrix:  check node shareddrivep

Warning: singular matrix:  check node shareddrivep

Warning: singular matrix:  check node shareddrivep

Warning: singular matrix:  check node shareddrivep

Warning: True gmin stepping failed
Note: Starting source stepping
Warning: source stepping failed
Note: Transient op started
Note: Transient op finished successfully

Initial Transient Solution
--------------------------

Node                                   Voltage
----                                   -------
vdd                                          1
pwr                                3.31466e-05
xenc0.b0b                                    1
b0                                           0
xenc0.b1b                                    1
b1                                           0
xenc0.b2b                                    1
b2                                           0
xenc0.xxnor01.t1                      0.999999
xenc0.xxnor01.xn1.n2                   1.00001
xenc0.xxnor01.t2                      0.999992
xenc0.xxnor01.xn2.n1               3.96869e-05
xenc0.xxnor01.t2b                 -1.00921e-05
xenc0.xxnor01.t3                      0.999996
xenc0.xxnor01.xnand.n1                0.618729
xenc0.xnor01                      -1.45142e-05
xenc0.xor01                                  1
xenc0.xxnor20.t1                      0.999999
xenc0.xxnor20.xn1.n2                   1.00001
xenc0.xxnor20.t2                      0.999992
xenc0.xxnor20.xn2.n1               3.96869e-05
xenc0.xxnor20.t2b                 -9.96554e-06
xenc0.xxnor20.t3                      0.999996
xenc0.xxnor20.xnand.n1                0.618729
xenc0.xnor20                      -1.21282e-05
xenc0.xor20                                  1
xenc0.nb2                                    1
xenc0.np                           2.65617e-06
xenc0.xnandp.n1                    2.72984e-05
xenc0.pos                                    1
xenc0.nb1                                    1
xenc0.nn                           4.31664e-07
xenc0.xnandn.n1                    2.28504e-05
xenc0.neg                             0.999998
xenc0.nneg                         3.39007e-06
xenc0.ntp                                    1
xenc0.xnandtp.n1                      0.644608
tp0                                5.42847e-07
xenc0.npos                        -1.49836e-05
xenc0.ntn                             0.999998
xenc0.xnandtn.n1                      0.618729
tn0                                5.05654e-07
xenc1.b0b                                    1
xenc1.b1b                                    1
xenc1.b2b                                    1
xenc1.xxnor01.t1                      0.999999
xenc1.xxnor01.xn1.n2                   1.00001
xenc1.xxnor01.t2                      0.999992
xenc1.xxnor01.xn2.n1               3.96869e-05
xenc1.xxnor01.t2b                 -1.00921e-05
xenc1.xxnor01.t3                      0.999996
xenc1.xxnor01.xnand.n1                0.618729
xenc1.xnor01                      -1.45144e-05
xenc1.xor01                                  1
xenc1.xxnor20.t1                      0.999999
xenc1.xxnor20.xn1.n2                   1.00001
xenc1.xxnor20.t2                      0.999992
xenc1.xxnor20.xn2.n1               3.96869e-05
xenc1.xxnor20.t2b                 -9.96553e-06
xenc1.xxnor20.t3                      0.999996
xenc1.xxnor20.xnand.n1                0.618729
xenc1.xnor20                      -1.21287e-05
xenc1.xor20                                  1
xenc1.nb2                                    1
xenc1.np                           2.65544e-06
xenc1.xnandp.n1                    2.72988e-05
xenc1.pos                                    1
xenc1.nb1                                    1
xenc1.nn                           4.31395e-07
xenc1.xnandn.n1                    2.28519e-05
xenc1.neg                             0.999998
xenc1.nneg                         3.39751e-06
xenc1.ntp                                    1
xenc1.xnandtp.n1                      0.644608
tp1                                4.57913e-07
xenc1.npos                        -1.49896e-05
xenc1.ntn                             0.999998
xenc1.xnandtn.n1                      0.618729
tn1                                4.21809e-07
xenc2.b0b                                    1
xenc2.b1b                                    1
xenc2.b2b                                    1
xenc2.xxnor01.t1                      0.999999
xenc2.xxnor01.xn1.n2                   1.00001
xenc2.xxnor01.t2                      0.999992
xenc2.xxnor01.xn2.n1               3.96869e-05
xenc2.xxnor01.t2b                 -1.00921e-05
xenc2.xxnor01.t3                      0.999996
xenc2.xxnor01.xnand.n1                0.618729
xenc2.xnor01                      -1.45142e-05
xenc2.xor01                                  1
xenc2.xxnor20.t1                      0.999999
xenc2.xxnor20.xn1.n2                   1.00001
xenc2.xxnor20.t2                      0.999992
xenc2.xxnor20.xn2.n1               3.96869e-05
xenc2.xxnor20.t2b                 -9.96554e-06
xenc2.xxnor20.t3                      0.999996
xenc2.xxnor20.xnand.n1                0.618729
xenc2.xnor20                      -1.21282e-05
xenc2.xor20                                  1
xenc2.nb2                                    1
xenc2.np                           2.65593e-06
xenc2.xnandp.n1                    2.72982e-05
xenc2.pos                                    1
xenc2.nb1                                    1
xenc2.nn                            4.3151e-07
xenc2.xnandn.n1                    2.28503e-05
xenc2.neg                             0.999998
xenc2.nneg                         3.38874e-06
xenc2.ntp                                    1
xenc2.xnandtp.n1                      0.644608
tp2                                5.82981e-07
xenc2.npos                        -1.49858e-05
xenc2.ntn                             0.999998
xenc2.xnandtn.n1                      0.618728
tn2                                5.45885e-07
xenc3.b0b                                    1
xenc3.b1b                                    1
xenc3.b2b                                    1
xenc3.xxnor01.t1                      0.999999
xenc3.xxnor01.xn1.n2                   1.00001
xenc3.xxnor01.t2                      0.999992
xenc3.xxnor01.xn2.n1               3.96869e-05
xenc3.xxnor01.t2b                 -1.00921e-05
xenc3.xxnor01.t3                      0.999996
xenc3.xxnor01.xnand.n1                0.618729
xenc3.xnor01                      -1.45144e-05
xenc3.xor01                                  1
xenc3.xxnor20.t1                      0.999999
xenc3.xxnor20.xn1.n2                   1.00001
xenc3.xxnor20.t2                      0.999992
xenc3.xxnor20.xn2.n1               3.96869e-05
xenc3.xxnor20.t2b                 -9.96553e-06
xenc3.xxnor20.t3                      0.999996
xenc3.xxnor20.xnand.n1                0.618729
xenc3.xnor20                      -1.21287e-05
xenc3.xor20                                  1
xenc3.nb2                                    1
xenc3.np                            2.6554e-06
xenc3.xnandp.n1                    2.72988e-05
xenc3.pos                                    1
xenc3.nb1                                    1
xenc3.nn                            4.3142e-07
xenc3.xnandn.n1                     2.2852e-05
xenc3.neg                             0.999998
xenc3.nneg                         3.39815e-06
xenc3.ntp                                    1
xenc3.xnandtp.n1                      0.644608
tp3                                4.86245e-07
xenc3.npos                        -1.49895e-05
xenc3.ntn                             0.999998
xenc3.xnandtn.n1                      0.618728
tn3                                  4.501e-07
xsense_shared.xor_p01.nor_ab          0.999995
xsense_shared.xor_p01.xnor_or.n2         1.00001
xsense_shared.orp01               -1.07747e-05
xsense_shared.xor_p23.nor_ab          0.999996
xsense_shared.xor_p23.xnor_or.n2         1.00001
xsense_shared.orp23               -3.47595e-06
xsense_shared.xor_p_all.nor_ab               1
xsense_shared.xor_p_all.xnor_or.n2        0.999988
sharedsensep                       1.26133e-05
xsense_shared.xor_n01.nor_ab          0.999995
xsense_shared.xor_n01.xnor_or.n2         1.00001
xsense_shared.orn01               -1.06881e-05
xsense_shared.xor_n23.nor_ab          0.999996
xsense_shared.xor_n23.xnor_or.n2         1.00001
xsense_shared.orn23               -3.36424e-06
xsense_shared.xor_n_all.nor_ab               1
xsense_shared.xor_n_all.xnor_or.n2        0.999988
sharedsensen                       1.25762e-05
sharedsensediff                    3.70463e-08
sharedsensep_noise                 1.26133e-05
sharedsensen_noise                 1.25762e-05
shareddrivep                          0.103476
shareddriven                          0.103476
bnoisen#branch                     1.69055e-05
bnoisep#branch                     1.69055e-05
bdiff#branch                                 0
bpw#branch                                   0
vdd#branch                        -3.31466e-05
vb2#branch                        -5.03165e-08
vb1#branch                        -4.68133e-08
vb0#branch                        -6.12101e-08


No. of Data Rows : 8056

  Measurements for Transient Analysis


Error: measure  td_tn0  trig(TARG) : out of interval
 .meas tran td_tn0 trig v(b0) val=    2.000000000000000e-02     rise=1 targ v(tn0) val=    8.000000000000000e-02     rise=1 failed!


Error: measure  settle_tn0  trig(TRIG) : out of interval
 .meas tran settle_tn0 trig v(tn0) val=    9.000000000000000e-01     fall=1 targ v(tn0) val=    1.000000000000000e-01     fall=1 failed!


Error: measure  td_sharedp  trig(TARG) : out of interval
 .meas tran td_sharedp trig v(b0) val=    2.000000000000000e-02     rise=1 targ v(shareddrivep) val=    8.000000000000000e-02     rise=1 failed!


Error: measure  settle_sharedp  trig(TARG) : out of interval
 .meas tran settle_sharedp trig v(shareddrivep) val=    1.000000000000000e-01     rise=1 targ v(shareddrivep) val=    9.000000000000000e-01     rise=1 failed!

pavg                =  4.995331e-05 from=  5.000000e-09 to=  3.500250e-08
etotal              =   1.49826e-12 from=  5.00000e-09 to=  3.50000e-08
pleak               =  3.429700e-05 from=  3.000000e-08 to=  3.500250e-08
eleak_tail          =   1.71319e-13 from=  3.00000e-08 to=  3.50000e-08
eleak_est           =  1.02791e-12
edyn                =  4.70343e-13
eslice              =  1.17586e-13
eword_est           =  5.05619e-12
td_tp0              =  3.033466e-09 targ=  4.034466e-09 trig=  1.001000e-09
settle_tp0          =  3.335253e-09 targ=  7.426944e-09 trig=  4.091691e-09
sense_headroom_min  =  -2.712786e-01 at=  7.557500e-09
sense_headroom_max  =  1.169251e+00 at=  1.878750e-08
sense_thresh_latency=  5.828854e-12 targ=  7.607738e-09 trig=  7.601909e-09


Total analysis time (seconds) = 6.04032

Total elapsed time (seconds) = 9.150 

Total DRAM available = 8192.000 MB.
DRAM currently available =   87.891 MB.
Maximum ngspice program size =  279.266 MB.
Current ngspice program size =  279.266 MB.

