
Note: No compatibility mode selected!


Circuit: * spicemodels/option-b-encoder.spice

Doing analysis at TEMP = 27.000000 and TNOM = 27.000000

Using SPARSE 1.3 as Direct Linear Solver
Warning: singular matrix:  check node shareddriven

Note: Starting dynamic gmin stepping
Warning: singular matrix:  check node shareddrivep

Warning: Dynamic gmin stepping failed
Note: Starting true gmin stepping
Warning: singular matrix:  check node shareddrivep

Warning: singular matrix:  check node shareddrivep

Warning: singular matrix:  check node shareddrivep

Warning: singular matrix:  check node shareddrivep

Warning: True gmin stepping failed
Note: Starting source stepping
Warning: source stepping failed
Note: Transient op started
Note: Transient op finished successfully

Initial Transient Solution
--------------------------

Node                                   Voltage
----                                   -------
vdd                                        0.9
pwr                                9.34491e-06
xenc0.b0b                                  0.9
b0                                           0
xenc0.b1b                                  0.9
b1                                           0
xenc0.b2b                                  0.9
b2                                           0
xenc0.xxnor01.t1                           0.9
xenc0.xxnor01.xn1.n2                       0.9
xenc0.xxnor01.t2                           0.9
xenc0.xxnor01.xn2.n1               3.18633e-05
xenc0.xxnor01.t2b                 -6.27785e-08
xenc0.xxnor01.t3                      0.899999
xenc0.xxnor01.xnand.n1                0.532535
xenc0.xnor01                      -5.53894e-06
xenc0.xor01                           0.899977
xenc0.xxnor20.t1                           0.9
xenc0.xxnor20.xn1.n2                       0.9
xenc0.xxnor20.t2                           0.9
xenc0.xxnor20.xn2.n1               3.18633e-05
xenc0.xxnor20.t2b                   7.7814e-08
xenc0.xxnor20.t3                           0.9
xenc0.xxnor20.xnand.n1                0.532535
xenc0.xnor20                       4.07325e-07
xenc0.xor20                           0.900001
xenc0.nb2                             0.899973
xenc0.np                           3.79232e-05
xenc0.xnandp.n1                   -0.000190574
xenc0.pos                             0.900006
xenc0.nb1                             0.900002
xenc0.nn                          -3.70799e-06
xenc0.xnandn.n1                    1.78995e-05
xenc0.neg                             0.899999
xenc0.nneg                         3.59773e-06
xenc0.ntp                             0.900002
xenc0.xnandtp.n1                      0.557271
tp0                                1.44995e-07
xenc0.npos                        -2.53791e-05
xenc0.ntn                             0.899995
xenc0.xnandtn.n1                       0.53253
tn0                                1.94111e-08
xenc1.b0b                                  0.9
xenc1.b1b                                  0.9
xenc1.b2b                                  0.9
xenc1.xxnor01.t1                           0.9
xenc1.xxnor01.xn1.n2                       0.9
xenc1.xxnor01.t2                           0.9
xenc1.xxnor01.xn2.n1               3.18633e-05
xenc1.xxnor01.t2b                 -6.27791e-08
xenc1.xxnor01.t3                      0.899999
xenc1.xxnor01.xnand.n1                0.532535
xenc1.xnor01                      -5.53892e-06
xenc1.xor01                           0.899977
xenc1.xxnor20.t1                           0.9
xenc1.xxnor20.xn1.n2                       0.9
xenc1.xxnor20.t2                           0.9
xenc1.xxnor20.xn2.n1               3.18633e-05
xenc1.xxnor20.t2b                  7.78144e-08
xenc1.xxnor20.t3                           0.9
xenc1.xxnor20.xnand.n1                0.532535
xenc1.xnor20                       4.07346e-07
xenc1.xor20                           0.900001
xenc1.nb2                             0.899973
xenc1.np                           3.79238e-05
xenc1.xnandp.n1                   -0.000190575
xenc1.pos                             0.900006
xenc1.nb1                             0.900002
xenc1.nn                           -3.7073e-06
xenc1.xnandn.n1                    1.78976e-05
xenc1.neg                             0.899999
xenc1.nneg                         3.60022e-06
xenc1.ntp                             0.900002
xenc1.xnandtp.n1                      0.557271
tp1                                 5.5321e-08
xenc1.npos                         -2.5376e-05
xenc1.ntn                             0.899995
xenc1.xnandtn.n1                       0.53253
tn1                               -4.59261e-08
xenc2.b0b                                  0.9
xenc2.b1b                                  0.9
xenc2.b2b                                  0.9
xenc2.xxnor01.t1                           0.9
xenc2.xxnor01.xn1.n2                       0.9
xenc2.xxnor01.t2                           0.9
xenc2.xxnor01.xn2.n1               3.18633e-05
xenc2.xxnor01.t2b                 -6.27793e-08
xenc2.xxnor01.t3                      0.899999
xenc2.xxnor01.xnand.n1                0.532535
xenc2.xnor01                      -5.53895e-06
xenc2.xor01                           0.899977
xenc2.xxnor20.t1                           0.9
xenc2.xxnor20.xn1.n2                       0.9
xenc2.xxnor20.t2                           0.9
xenc2.xxnor20.xn2.n1               3.18633e-05
xenc2.xxnor20.t2b                  7.78136e-08
xenc2.xxnor20.t3                           0.9
xenc2.xxnor20.xnand.n1                0.532535
xenc2.xnor20                       4.07322e-07
xenc2.xor20                           0.900001
xenc2.nb2                             0.899973
xenc2.np                           3.79228e-05
xenc2.xnandp.n1                   -0.000190574
xenc2.pos                             0.900006
xenc2.nb1                             0.900002
xenc2.nn                          -3.70848e-06
xenc2.xnandn.n1                    1.78995e-05
xenc2.neg                             0.899999
xenc2.nneg                         3.59113e-06
xenc2.ntp                             0.900002
xenc2.xnandtp.n1                      0.557271
tp2                               -5.11731e-08
xenc2.npos                        -2.53862e-05
xenc2.ntn                             0.899995
xenc2.xnandtn.n1                       0.53253
tn2                               -1.48623e-07
xenc3.b0b                                  0.9
xenc3.b1b                                  0.9
xenc3.b2b                                  0.9
xenc3.xxnor01.t1                           0.9
xenc3.xxnor01.xn1.n2                       0.9
xenc3.xxnor01.t2                           0.9
xenc3.xxnor01.xn2.n1               3.18634e-05
xenc3.xxnor01.t2b                 -6.27791e-08
xenc3.xxnor01.t3                      0.899999
xenc3.xxnor01.xnand.n1                0.532535
xenc3.xnor01                      -5.53892e-06
xenc3.xor01                           0.899977
xenc3.xxnor20.t1                           0.9
xenc3.xxnor20.xn1.n2                       0.9
xenc3.xxnor20.t2                           0.9
xenc3.xxnor20.xn2.n1               3.18633e-05
xenc3.xxnor20.t2b                  7.78144e-08
xenc3.xxnor20.t3                           0.9
xenc3.xxnor20.xnand.n1                0.532535
xenc3.xnor20                       4.07345e-07
xenc3.xor20                           0.900001
xenc3.nb2                             0.899973
xenc3.np                           3.79237e-05
xenc3.xnandp.n1                   -0.000190575
xenc3.pos                             0.900006
xenc3.nb1                             0.900002
xenc3.nn                          -3.70745e-06
xenc3.xnandn.n1                    1.78975e-05
xenc3.neg                             0.899999
xenc3.nneg                         3.59837e-06
xenc3.ntp                             0.900002
xenc3.xnandtp.n1                      0.557271
tp3                                3.69025e-08
xenc3.npos                        -2.53782e-05
xenc3.ntn                             0.899995
xenc3.xnandtn.n1                       0.53253
tn3                               -6.01207e-08
xsense_shared.xor_p01.nor_ab          0.900005
xsense_shared.xor_p01.xnor_or.n2        0.900002
xsense_shared.orp01                4.57683e-05
xsense_shared.xor_p23.nor_ab          0.899995
xsense_shared.xor_p23.xnor_or.n2        0.900004
xsense_shared.orp23               -2.31707e-05
xsense_shared.xor_p_all.nor_ab         0.90017
xsense_shared.xor_p_all.xnor_or.n2        0.899931
sharedsensep                        0.00100932
xsense_shared.xor_n01.nor_ab          0.900003
xsense_shared.xor_n01.xnor_or.n2        0.900001
xsense_shared.orn01                3.26356e-05
xsense_shared.xor_n23.nor_ab          0.899995
xsense_shared.xor_n23.xnor_or.n2        0.900003
xsense_shared.orn23               -2.49879e-05
xsense_shared.xor_n_all.nor_ab        0.900117
xsense_shared.xor_n_all.xnor_or.n2        0.899937
sharedsensen                       0.000624233
sharedsensediff                    0.000385086
sharedsensep_noise                  0.00100932
sharedsensen_noise                 0.000624233
shareddrivep                          0.121829
shareddriven                          0.121816
shareddrivediff                    1.25688e-05
bdrivediff#branch                            0
bnoisen#branch                     5.90356e-06
bnoisep#branch                     6.07658e-06
bdiff#branch                                 0
bpw#branch                                   0
vdd#branch                        -1.03832e-05
vb2#branch                          2.3677e-08
vb1#branch                        -4.64235e-08
vb0#branch                        -4.25249e-08


No. of Data Rows : 8062

  Measurements for Transient Analysis


Error: measure  td_tp0  trig(TARG) : out of interval
 .meas tran td_tp0 trig v(b0) val=    4.500000000000000e-01     rise=1 targ v(tp0) val=    4.500000000000000e-01     rise=1 failed!


Error: measure  td_tn0  trig(TARG) : out of interval
 .meas tran td_tn0 trig v(b0) val=    4.500000000000000e-01     rise=1 targ v(tn0) val=    4.500000000000000e-01     rise=1 failed!


Error: measure  settle_tp0  trig(TRIG) : out of interval
 .meas tran settle_tp0 trig v(tp0) val=    9.000000000000001e-02     rise=1 targ v(tp0) val=    8.100000000000001e-01     rise=1 failed!


Error: measure  settle_tn0  trig(TRIG) : out of interval
 .meas tran settle_tn0 trig v(tn0) val=    8.100000000000001e-01     fall=1 targ v(tn0) val=    9.000000000000001e-02     fall=1 failed!


Error: measure  td_sharedp  trig(TARG) : out of interval
 .meas tran td_sharedp trig v(b0) val=    4.500000000000000e-01     rise=1 targ v(shareddrivep) val=    4.500000000000000e-01     rise=1 failed!


Error: measure  settle_sharedp  trig(TRIG) : out of interval
 .meas tran settle_sharedp trig v(shareddrivep) val=    9.000000000000001e-02     rise=1 targ v(shareddrivep) val=    8.100000000000001e-01     rise=1 failed!


Error: measure  sense_thresh_latency  trig(TRIG) : out of interval
 .meas tran sense_thresh_latency trig v(sharedsensediff) val=    1.800000000000000e-02     rise=1 targ v(sharedsensediff) val=    7.200000000000001e-02     rise=1 failed!

pavg                =  1.888079e-05 from=  5.000000e-09 to=  3.500050e-08
etotal              =   5.66442e-13 from=  5.00000e-09 to=  3.50000e-08
pleak               =  8.443798e-06 from=  3.000000e-08 to=  3.500050e-08
eleak_tail          =   4.22190e-14 from=  3.00000e-08 to=  3.50000e-08
eleak_est           =  2.53314e-13
edyn                =  3.13128e-13
eslice              =  7.82819e-14
eword_est           =  3.36612e-12
sense_headroom_min  =  -4.164609e-04 at=  7.497500e-09
sense_headroom_max  =  4.168756e-04 at=  2.497500e-09
sharedsensep_max    =  1.009318e-03 at=  0.000000e+00
sharedsensen_min    =  -1.174073e-06 at=  1.191750e-08


Total analysis time (seconds) = 5.2835

Total elapsed time (seconds) = 8.189 

Total DRAM available = 8192.000 MB.
DRAM currently available =   73.266 MB.
Maximum ngspice program size =  285.609 MB.
Current ngspice program size =  285.609 MB.

